<additional>
    <e1Detector file="/home/kealan/College/fyp/mapdata/cork-city/detector_results/e1_output.xml" freq="4" friendlyPos="x" id="e1det_-107185799#0_0" lane="-107185799#0_0" length="1" pos="30.209999999999997"/>
    <e1Detector file="/home/kealan/College/fyp/mapdata/cork-city/detector_results/e1_output.xml" freq="4" friendlyPos="x" id="e1det_-107185799#0_1" lane="-107185799#0_1" length="1" pos="30.209999999999997"/>
    <e1Detector file="/home/kealan/College/fyp/mapdata/cork-city/detector_results/e1_output.xml" freq="4" friendlyPos="x" id="e1det_114395954_0" lane="114395954_0" length="1" pos="32.44"/>
    <e1Detector file="/home/kealan/College/fyp/mapdata/cork-city/detector_results/e1_output.xml" freq="4" friendlyPos="x" id="e1det_114395954_1" lane="114395954_1" length="1" pos="32.44"/>
    <e1Detector file="/home/kealan/College/fyp/mapdata/cork-city/detector_results/e1_output.xml" freq="4" friendlyPos="x" id="e1det_279050195_0" lane="279050195_0" length="1" pos="157.94"/>
    <e1Detector file="/home/kealan/College/fyp/mapdata/cork-city/detector_results/e1_output.xml" freq="4" friendlyPos="x" id="e1det_279050195_1" lane="279050195_1" length="1" pos="157.94"/>
    <e1Detector file="/home/kealan/College/fyp/mapdata/cork-city/detector_results/e1_output.xml" freq="4" friendlyPos="x" id="e1det_279050195_2" lane="279050195_2" length="1" pos="157.94"/>
    <e1Detector file="/home/kealan/College/fyp/mapdata/cork-city/detector_results/e1_output.xml" freq="4" friendlyPos="x" id="e1det_-109021467#0_0" lane="-109021467#0_0" length="1" pos="21.15"/>
    <e1Detector file="/home/kealan/College/fyp/mapdata/cork-city/detector_results/e1_output.xml" freq="4" friendlyPos="x" id="e1det_-109021467#0_1" lane="-109021467#0_1" length="1" pos="21.15"/>
    <e1Detector file="/home/kealan/College/fyp/mapdata/cork-city/detector_results/e1_output.xml" freq="4" friendlyPos="x" id="e1det_178631602#2_0" lane="178631602#2_0" length="1" pos="60.089999999999996"/>
    <e1Detector file="/home/kealan/College/fyp/mapdata/cork-city/detector_results/e1_output.xml" freq="4" friendlyPos="x" id="e1det_178631602#2_1" lane="178631602#2_1" length="1" pos="60.089999999999996"/>
    <e1Detector file="/home/kealan/College/fyp/mapdata/cork-city/detector_results/e1_output.xml" freq="4" friendlyPos="x" id="e1det_224781979#3_0" lane="224781979#3_0" length="1" pos="134.76000000000002"/>
    <e1Detector file="/home/kealan/College/fyp/mapdata/cork-city/detector_results/e1_output.xml" freq="4" friendlyPos="x" id="e1det_98387831#3_0" lane="98387831#3_0" length="1" pos="50.12"/>
    <e1Detector file="/home/kealan/College/fyp/mapdata/cork-city/detector_results/e1_output.xml" freq="4" friendlyPos="x" id="e1det_-118614115_0" lane="-118614115_0" length="1" pos="0.85"/>
    <e1Detector file="/home/kealan/College/fyp/mapdata/cork-city/detector_results/e1_output.xml" freq="4" friendlyPos="x" id="e1det_-51012854#0_0" lane="-51012854#0_0" length="1" pos="62.93"/>
    <e1Detector file="/home/kealan/College/fyp/mapdata/cork-city/detector_results/e1_output.xml" freq="4" friendlyPos="x" id="e1det_118614115_0" lane="118614115_0" length="1" pos="0.85"/>
    <e1Detector file="/home/kealan/College/fyp/mapdata/cork-city/detector_results/e1_output.xml" freq="4" friendlyPos="x" id="e1det_138017447#1_0" lane="138017447#1_0" length="1" pos="208.94"/>
    <e1Detector file="/home/kealan/College/fyp/mapdata/cork-city/detector_results/e1_output.xml" freq="4" friendlyPos="x" id="e1det_138017447#1_1" lane="138017447#1_1" length="1" pos="208.94"/>
    <e1Detector file="/home/kealan/College/fyp/mapdata/cork-city/detector_results/e1_output.xml" freq="4" friendlyPos="x" id="e1det_22634728#2_0" lane="22634728#2_0" length="1" pos="50.04"/>
    <e1Detector file="/home/kealan/College/fyp/mapdata/cork-city/detector_results/e1_output.xml" freq="4" friendlyPos="x" id="e1det_22634728#2_1" lane="22634728#2_1" length="1" pos="50.04"/>
    <e1Detector file="/home/kealan/College/fyp/mapdata/cork-city/detector_results/e1_output.xml" freq="4" friendlyPos="x" id="e1det_75589366#23_0" lane="75589366#23_0" length="1" pos="37.54"/>
    <e1Detector file="/home/kealan/College/fyp/mapdata/cork-city/detector_results/e1_output.xml" freq="4" friendlyPos="x" id="e1det_-129111452#0_0" lane="-129111452#0_0" length="1" pos="89.77000000000001"/>
    <e1Detector file="/home/kealan/College/fyp/mapdata/cork-city/detector_results/e1_output.xml" freq="4" friendlyPos="x" id="e1det_-29312521#0_0" lane="-29312521#0_0" length="1" pos="12.01"/>
    <e1Detector file="/home/kealan/College/fyp/mapdata/cork-city/detector_results/e1_output.xml" freq="4" friendlyPos="x" id="e1det_-31346243_0" lane="-31346243_0" length="0.30000000000000004" pos="0"/>
    <e1Detector file="/home/kealan/College/fyp/mapdata/cork-city/detector_results/e1_output.xml" freq="4" friendlyPos="x" id="e1det_-31346243_1" lane="-31346243_1" length="0.30000000000000004" pos="0"/>
    <e1Detector file="/home/kealan/College/fyp/mapdata/cork-city/detector_results/e1_output.xml" freq="4" friendlyPos="x" id="e1det_14890414#1_0" lane="14890414#1_0" length="1" pos="24.209999999999997"/>
    <e1Detector file="/home/kealan/College/fyp/mapdata/cork-city/detector_results/e1_output.xml" freq="4" friendlyPos="x" id="e1det_14890414#1_1" lane="14890414#1_1" length="1" pos="24.209999999999997"/>
    <e1Detector file="/home/kealan/College/fyp/mapdata/cork-city/detector_results/e1_output.xml" freq="4" friendlyPos="x" id="e1det_14890414#1_2" lane="14890414#1_2" length="1" pos="24.209999999999997"/>
    <e1Detector file="/home/kealan/College/fyp/mapdata/cork-city/detector_results/e1_output.xml" freq="4" friendlyPos="x" id="e1det_29312521#0_0" lane="29312521#0_0" length="1" pos="12.07"/>
    <e1Detector file="/home/kealan/College/fyp/mapdata/cork-city/detector_results/e1_output.xml" freq="4" friendlyPos="x" id="e1det_426438140#3_0" lane="426438140#3_0" length="1" pos="47.449999999999996"/>
    <e1Detector file="/home/kealan/College/fyp/mapdata/cork-city/detector_results/e1_output.xml" freq="4" friendlyPos="x" id="e1det_426438140#3_1" lane="426438140#3_1" length="1" pos="47.449999999999996"/>
    <e1Detector file="/home/kealan/College/fyp/mapdata/cork-city/detector_results/e1_output.xml" freq="4" friendlyPos="x" id="e1det_80511350_0" lane="80511350_0" length="1" pos="96.25"/>
    <e1Detector file="/home/kealan/College/fyp/mapdata/cork-city/detector_results/e1_output.xml" freq="4" friendlyPos="x" id="e1det_-129451613_0" lane="-129451613_0" length="1" pos="53.199999999999996"/>
    <e1Detector file="/home/kealan/College/fyp/mapdata/cork-city/detector_results/e1_output.xml" freq="4" friendlyPos="x" id="e1det_-14890634#2_0" lane="-14890634#2_0" length="1" pos="97.38000000000001"/>
    <e1Detector file="/home/kealan/College/fyp/mapdata/cork-city/detector_results/e1_output.xml" freq="4" friendlyPos="x" id="e1det_1219403#0_0" lane="1219403#0_0" length="1" pos="83.09"/>
    <e1Detector file="/home/kealan/College/fyp/mapdata/cork-city/detector_results/e1_output.xml" freq="4" friendlyPos="x" id="e1det_14890634#1_0" lane="14890634#1_0" length="1" pos="50.29"/>
    <e1Detector file="/home/kealan/College/fyp/mapdata/cork-city/detector_results/e1_output.xml" freq="4" friendlyPos="x" id="e1det_14890634#1_1" lane="14890634#1_1" length="1" pos="50.29"/>
    <e1Detector file="/home/kealan/College/fyp/mapdata/cork-city/detector_results/e1_output.xml" freq="4" friendlyPos="x" id="e1det_-129462269#0_0" lane="-129462269#0_0" length="1" pos="39.08"/>
    <e1Detector file="/home/kealan/College/fyp/mapdata/cork-city/detector_results/e1_output.xml" freq="4" friendlyPos="x" id="e1det_-13989039#0_0" lane="-13989039#0_0" length="1" pos="128.15"/>
    <e1Detector file="/home/kealan/College/fyp/mapdata/cork-city/detector_results/e1_output.xml" freq="4" friendlyPos="x" id="e1det_204876015_0" lane="204876015_0" length="1" pos="35.57"/>
    <e1Detector file="/home/kealan/College/fyp/mapdata/cork-city/detector_results/e1_output.xml" freq="4" friendlyPos="x" id="e1det_-129518914_0" lane="-129518914_0" length="1" pos="21.27"/>
    <e1Detector file="/home/kealan/College/fyp/mapdata/cork-city/detector_results/e1_output.xml" freq="4" friendlyPos="x" id="e1det_-224709345#0_0" lane="-224709345#0_0" length="1" pos="78.24000000000001"/>
    <e1Detector file="/home/kealan/College/fyp/mapdata/cork-city/detector_results/e1_output.xml" freq="4" friendlyPos="x" id="e1det_-224709345#0_1" lane="-224709345#0_1" length="1" pos="78.24000000000001"/>
    <e1Detector file="/home/kealan/College/fyp/mapdata/cork-city/detector_results/e1_output.xml" freq="4" friendlyPos="x" id="e1det_31404826#1_0" lane="31404826#1_0" length="1" pos="54.47"/>
    <e1Detector file="/home/kealan/College/fyp/mapdata/cork-city/detector_results/e1_output.xml" freq="4" friendlyPos="x" id="e1det_31404826#1_1" lane="31404826#1_1" length="1" pos="54.47"/>
    <e1Detector file="/home/kealan/College/fyp/mapdata/cork-city/detector_results/e1_output.xml" freq="4" friendlyPos="x" id="e1det_-135340274#0_0" lane="-135340274#0_0" length="1" pos="30.7"/>
    <e1Detector file="/home/kealan/College/fyp/mapdata/cork-city/detector_results/e1_output.xml" freq="4" friendlyPos="x" id="e1det_135340275#0_0" lane="135340275#0_0" length="1" pos="92.83000000000001"/>
    <e1Detector file="/home/kealan/College/fyp/mapdata/cork-city/detector_results/e1_output.xml" freq="4" friendlyPos="x" id="e1det_135340275#0_1" lane="135340275#0_1" length="1" pos="92.83000000000001"/>
    <e1Detector file="/home/kealan/College/fyp/mapdata/cork-city/detector_results/e1_output.xml" freq="4" friendlyPos="x" id="e1det_137229994#1_0" lane="137229994#1_0" length="1" pos="42.33"/>
    <e1Detector file="/home/kealan/College/fyp/mapdata/cork-city/detector_results/e1_output.xml" freq="4" friendlyPos="x" id="e1det_137229994#1_1" lane="137229994#1_1" length="1" pos="42.33"/>
    <e1Detector file="/home/kealan/College/fyp/mapdata/cork-city/detector_results/e1_output.xml" freq="4" friendlyPos="x" id="e1det_-135350072#1_0" lane="-135350072#1_0" length="0.1" pos="0"/>
    <e1Detector file="/home/kealan/College/fyp/mapdata/cork-city/detector_results/e1_output.xml" freq="4" friendlyPos="x" id="e1det_135350072#0_0" lane="135350072#0_0" length="1" pos="18.709999999999997"/>
    <e1Detector file="/home/kealan/College/fyp/mapdata/cork-city/detector_results/e1_output.xml" freq="4" friendlyPos="x" id="e1det_135350072#1_0" lane="135350072#1_0" length="0.1" pos="0"/>
    <e1Detector file="/home/kealan/College/fyp/mapdata/cork-city/detector_results/e1_output.xml" freq="4" friendlyPos="x" id="e1det_337080198#0_0" lane="337080198#0_0" length="1" pos="77.52000000000001"/>
    <e1Detector file="/home/kealan/College/fyp/mapdata/cork-city/detector_results/e1_output.xml" freq="4" friendlyPos="x" id="e1det_337080198#0_1" lane="337080198#0_1" length="1" pos="77.52000000000001"/>
    <e1Detector file="/home/kealan/College/fyp/mapdata/cork-city/detector_results/e1_output.xml" freq="4" friendlyPos="x" id="e1det_426438140#1_0" lane="426438140#1_0" length="1" pos="7.130000000000001"/>
    <e1Detector file="/home/kealan/College/fyp/mapdata/cork-city/detector_results/e1_output.xml" freq="4" friendlyPos="x" id="e1det_426438140#1_1" lane="426438140#1_1" length="1" pos="7.130000000000001"/>
    <e1Detector file="/home/kealan/College/fyp/mapdata/cork-city/detector_results/e1_output.xml" freq="4" friendlyPos="x" id="e1det_60889236_0" lane="60889236_0" length="1" pos="54.96"/>
    <e1Detector file="/home/kealan/College/fyp/mapdata/cork-city/detector_results/e1_output.xml" freq="4" friendlyPos="x" id="e1det_-137231946#0_0" lane="-137231946#0_0" length="1" pos="132.84"/>
    <e1Detector file="/home/kealan/College/fyp/mapdata/cork-city/detector_results/e1_output.xml" freq="4" friendlyPos="x" id="e1det_-137231946#0_1" lane="-137231946#0_1" length="1" pos="132.84"/>
    <e1Detector file="/home/kealan/College/fyp/mapdata/cork-city/detector_results/e1_output.xml" freq="4" friendlyPos="x" id="e1det_-137231947#0_0" lane="-137231947#0_0" length="1" pos="132.58"/>
    <e1Detector file="/home/kealan/College/fyp/mapdata/cork-city/detector_results/e1_output.xml" freq="4" friendlyPos="x" id="e1det_-137231947#0_1" lane="-137231947#0_1" length="1" pos="132.58"/>
    <e1Detector file="/home/kealan/College/fyp/mapdata/cork-city/detector_results/e1_output.xml" freq="4" friendlyPos="x" id="e1det_29301230#5_0" lane="29301230#5_0" length="1" pos="126.63000000000001"/>
    <e1Detector file="/home/kealan/College/fyp/mapdata/cork-city/detector_results/e1_output.xml" freq="4" friendlyPos="x" id="e1det_29301230#5_1" lane="29301230#5_1" length="1" pos="126.63000000000001"/>
    <e1Detector file="/home/kealan/College/fyp/mapdata/cork-city/detector_results/e1_output.xml" freq="4" friendlyPos="x" id="e1det_37812769#1_0" lane="37812769#1_0" length="1" pos="40.99"/>
    <e1Detector file="/home/kealan/College/fyp/mapdata/cork-city/detector_results/e1_output.xml" freq="4" friendlyPos="x" id="e1det_-137231956#0_0" lane="-137231956#0_0" length="1" pos="81.05000000000001"/>
    <e1Detector file="/home/kealan/College/fyp/mapdata/cork-city/detector_results/e1_output.xml" freq="4" friendlyPos="x" id="e1det_-338707030#0_0" lane="-338707030#0_0" length="1" pos="55.809999999999995"/>
    <e1Detector file="/home/kealan/College/fyp/mapdata/cork-city/detector_results/e1_output.xml" freq="4" friendlyPos="x" id="e1det_477791944#2_0" lane="477791944#2_0" length="1" pos="121.18"/>
    <e1Detector file="/home/kealan/College/fyp/mapdata/cork-city/detector_results/e1_output.xml" freq="4" friendlyPos="x" id="e1det_5312400#3_0" lane="5312400#3_0" length="1" pos="142.86"/>
    <e1Detector file="/home/kealan/College/fyp/mapdata/cork-city/detector_results/e1_output.xml" freq="4" friendlyPos="x" id="e1det_-138016950#1_0" lane="-138016950#1_0" length="1" pos="50.559999999999995"/>
    <e1Detector file="/home/kealan/College/fyp/mapdata/cork-city/detector_results/e1_output.xml" freq="4" friendlyPos="x" id="e1det_138016963#2_0" lane="138016963#2_0" length="1" pos="100.34"/>
    <e1Detector file="/home/kealan/College/fyp/mapdata/cork-city/detector_results/e1_output.xml" freq="4" friendlyPos="x" id="e1det_17504008#4_0" lane="17504008#4_0" length="1" pos="76.44000000000001"/>
    <e1Detector file="/home/kealan/College/fyp/mapdata/cork-city/detector_results/e1_output.xml" freq="4" friendlyPos="x" id="e1det_366791128#5_0" lane="366791128#5_0" length="1" pos="15.12"/>
    <e1Detector file="/home/kealan/College/fyp/mapdata/cork-city/detector_results/e1_output.xml" freq="4" friendlyPos="x" id="e1det_-138016953#0_0" lane="-138016953#0_0" length="1" pos="208.54"/>
    <e1Detector file="/home/kealan/College/fyp/mapdata/cork-city/detector_results/e1_output.xml" freq="4" friendlyPos="x" id="e1det_-366528055#6_0" lane="-366528055#6_0" length="1" pos="111.57000000000001"/>
    <e1Detector file="/home/kealan/College/fyp/mapdata/cork-city/detector_results/e1_output.xml" freq="4" friendlyPos="x" id="e1det_-366528055#6_1" lane="-366528055#6_1" length="1" pos="111.57000000000001"/>
    <e1Detector file="/home/kealan/College/fyp/mapdata/cork-city/detector_results/e1_output.xml" freq="4" friendlyPos="x" id="e1det_13988695_0" lane="13988695_0" length="1" pos="104.04"/>
    <e1Detector file="/home/kealan/College/fyp/mapdata/cork-city/detector_results/e1_output.xml" freq="4" friendlyPos="x" id="e1det_366528055#5_0" lane="366528055#5_0" length="1" pos="26.57"/>
    <e1Detector file="/home/kealan/College/fyp/mapdata/cork-city/detector_results/e1_output.xml" freq="4" friendlyPos="x" id="e1det_366528055#5_1" lane="366528055#5_1" length="1" pos="26.57"/>
    <e1Detector file="/home/kealan/College/fyp/mapdata/cork-city/detector_results/e1_output.xml" freq="4" friendlyPos="x" id="e1det_-138016956#0_0" lane="-138016956#0_0" length="1" pos="9.15"/>
    <e1Detector file="/home/kealan/College/fyp/mapdata/cork-city/detector_results/e1_output.xml" freq="4" friendlyPos="x" id="e1det_-203756780#0_0" lane="-203756780#0_0" length="1" pos="7.890000000000001"/>
    <e1Detector file="/home/kealan/College/fyp/mapdata/cork-city/detector_results/e1_output.xml" freq="4" friendlyPos="x" id="e1det_13990182#3_0" lane="13990182#3_0" length="1" pos="92.65"/>
    <e1Detector file="/home/kealan/College/fyp/mapdata/cork-city/detector_results/e1_output.xml" freq="4" friendlyPos="x" id="e1det_13990182#3_1" lane="13990182#3_1" length="1" pos="92.65"/>
    <e1Detector file="/home/kealan/College/fyp/mapdata/cork-city/detector_results/e1_output.xml" freq="4" friendlyPos="x" id="e1det_61188950#1_0" lane="61188950#1_0" length="1" pos="49.01"/>
    <e1Detector file="/home/kealan/College/fyp/mapdata/cork-city/detector_results/e1_output.xml" freq="4" friendlyPos="x" id="e1det_-138016956#6_0" lane="-138016956#6_0" length="1" pos="86.32000000000001"/>
    <e1Detector file="/home/kealan/College/fyp/mapdata/cork-city/detector_results/e1_output.xml" freq="4" friendlyPos="x" id="e1det_138016956#4_0" lane="138016956#4_0" length="1" pos="41.35"/>
    <e1Detector file="/home/kealan/College/fyp/mapdata/cork-city/detector_results/e1_output.xml" freq="4" friendlyPos="x" id="e1det_85523619_0" lane="85523619_0" length="1" pos="87.37"/>
    <e1Detector file="/home/kealan/College/fyp/mapdata/cork-city/detector_results/e1_output.xml" freq="4" friendlyPos="x" id="e1det_85523623_0" lane="85523623_0" length="1" pos="181.1"/>
    <e1Detector file="/home/kealan/College/fyp/mapdata/cork-city/detector_results/e1_output.xml" freq="4" friendlyPos="x" id="e1det_-138017526#0_0" lane="-138017526#0_0" length="1" pos="52.769999999999996"/>
    <e1Detector file="/home/kealan/College/fyp/mapdata/cork-city/detector_results/e1_output.xml" freq="4" friendlyPos="x" id="e1det_138016956#10_0" lane="138016956#10_0" length="1" pos="115.04"/>
    <e1Detector file="/home/kealan/College/fyp/mapdata/cork-city/detector_results/e1_output.xml" freq="4" friendlyPos="x" id="e1det_366448839#1_0" lane="366448839#1_0" length="1" pos="61.73"/>
    <e1Detector file="/home/kealan/College/fyp/mapdata/cork-city/detector_results/e1_output.xml" freq="4" friendlyPos="x" id="e1det_477791963_0" lane="477791963_0" length="1" pos="169.99"/>
    <e1Detector file="/home/kealan/College/fyp/mapdata/cork-city/detector_results/e1_output.xml" freq="4" friendlyPos="x" id="e1det_-138120046#0_0" lane="-138120046#0_0" length="1" pos="31.6"/>
    <e1Detector file="/home/kealan/College/fyp/mapdata/cork-city/detector_results/e1_output.xml" freq="4" friendlyPos="x" id="e1det_-138120046#0_1" lane="-138120046#0_1" length="1" pos="31.6"/>
    <e1Detector file="/home/kealan/College/fyp/mapdata/cork-city/detector_results/e1_output.xml" freq="4" friendlyPos="x" id="e1det_-15133374_0" lane="-15133374_0" length="1" pos="0.32999999999999996"/>
    <e1Detector file="/home/kealan/College/fyp/mapdata/cork-city/detector_results/e1_output.xml" freq="4" friendlyPos="x" id="e1det_-15133374_1" lane="-15133374_1" length="1" pos="0.32999999999999996"/>
    <e1Detector file="/home/kealan/College/fyp/mapdata/cork-city/detector_results/e1_output.xml" freq="4" friendlyPos="x" id="e1det_20647305#1_0" lane="20647305#1_0" length="1" pos="67.71000000000001"/>
    <e1Detector file="/home/kealan/College/fyp/mapdata/cork-city/detector_results/e1_output.xml" freq="4" friendlyPos="x" id="e1det_20647305#1_1" lane="20647305#1_1" length="1" pos="67.71000000000001"/>
    <e1Detector file="/home/kealan/College/fyp/mapdata/cork-city/detector_results/e1_output.xml" freq="4" friendlyPos="x" id="e1det_20647305#1_2" lane="20647305#1_2" length="1" pos="67.71000000000001"/>
    <e1Detector file="/home/kealan/College/fyp/mapdata/cork-city/detector_results/e1_output.xml" freq="4" friendlyPos="x" id="e1det_-138120048#2_0" lane="-138120048#2_0" length="1" pos="26.18"/>
    <e1Detector file="/home/kealan/College/fyp/mapdata/cork-city/detector_results/e1_output.xml" freq="4" friendlyPos="x" id="e1det_-138120048#2_1" lane="-138120048#2_1" length="1" pos="26.18"/>
    <e1Detector file="/home/kealan/College/fyp/mapdata/cork-city/detector_results/e1_output.xml" freq="4" friendlyPos="x" id="e1det_138120048#0_0" lane="138120048#0_0" length="1" pos="2.2399999999999998"/>
    <e1Detector file="/home/kealan/College/fyp/mapdata/cork-city/detector_results/e1_output.xml" freq="4" friendlyPos="x" id="e1det_138120048#0_1" lane="138120048#0_1" length="1" pos="2.2399999999999998"/>
    <e1Detector file="/home/kealan/College/fyp/mapdata/cork-city/detector_results/e1_output.xml" freq="4" friendlyPos="x" id="e1det_80511360#1_0" lane="80511360#1_0" length="1" pos="34.33"/>
    <e1Detector file="/home/kealan/College/fyp/mapdata/cork-city/detector_results/e1_output.xml" freq="4" friendlyPos="x" id="e1det_-138124572#1_0" lane="-138124572#1_0" length="1" pos="70.64"/>
    <e1Detector file="/home/kealan/College/fyp/mapdata/cork-city/detector_results/e1_output.xml" freq="4" friendlyPos="x" id="e1det_-138124572#1_1" lane="-138124572#1_1" length="1" pos="70.64"/>
    <e1Detector file="/home/kealan/College/fyp/mapdata/cork-city/detector_results/e1_output.xml" freq="4" friendlyPos="x" id="e1det_138124572#0_0" lane="138124572#0_0" length="1" pos="9.96"/>
    <e1Detector file="/home/kealan/College/fyp/mapdata/cork-city/detector_results/e1_output.xml" freq="4" friendlyPos="x" id="e1det_138124572#0_1" lane="138124572#0_1" length="1" pos="9.96"/>
    <e1Detector file="/home/kealan/College/fyp/mapdata/cork-city/detector_results/e1_output.xml" freq="4" friendlyPos="x" id="e1det_-138125464#1_0" lane="-138125464#1_0" length="1" pos="44.55"/>
    <e1Detector file="/home/kealan/College/fyp/mapdata/cork-city/detector_results/e1_output.xml" freq="4" friendlyPos="x" id="e1det_145681856#3_0" lane="145681856#3_0" length="1" pos="25.229999999999997"/>
    <e1Detector file="/home/kealan/College/fyp/mapdata/cork-city/detector_results/e1_output.xml" freq="4" friendlyPos="x" id="e1det_145681856#3_1" lane="145681856#3_1" length="1" pos="25.229999999999997"/>
    <e1Detector file="/home/kealan/College/fyp/mapdata/cork-city/detector_results/e1_output.xml" freq="4" friendlyPos="x" id="e1det_-138137060_0" lane="-138137060_0" length="1" pos="63.38"/>
    <e1Detector file="/home/kealan/College/fyp/mapdata/cork-city/detector_results/e1_output.xml" freq="4" friendlyPos="x" id="e1det_22635046#1_0" lane="22635046#1_0" length="1" pos="42.17"/>
    <e1Detector file="/home/kealan/College/fyp/mapdata/cork-city/detector_results/e1_output.xml" freq="4" friendlyPos="x" id="e1det_22635046#1_1" lane="22635046#1_1" length="1" pos="42.17"/>
    <e1Detector file="/home/kealan/College/fyp/mapdata/cork-city/detector_results/e1_output.xml" freq="4" friendlyPos="x" id="e1det_-138139801#0_0" lane="-138139801#0_0" length="1" pos="57.73"/>
    <e1Detector file="/home/kealan/College/fyp/mapdata/cork-city/detector_results/e1_output.xml" freq="4" friendlyPos="x" id="e1det_-477791968#0_0" lane="-477791968#0_0" length="1" pos="27.209999999999997"/>
    <e1Detector file="/home/kealan/College/fyp/mapdata/cork-city/detector_results/e1_output.xml" freq="4" friendlyPos="x" id="e1det_-5312403#0_0" lane="-5312403#0_0" length="1" pos="42.949999999999996"/>
    <e1Detector file="/home/kealan/College/fyp/mapdata/cork-city/detector_results/e1_output.xml" freq="4" friendlyPos="x" id="e1det_103361511#1_0" lane="103361511#1_0" length="1" pos="161.48000000000002"/>
    <e1Detector file="/home/kealan/College/fyp/mapdata/cork-city/detector_results/e1_output.xml" freq="4" friendlyPos="x" id="e1det_-138139801#9_0" lane="-138139801#9_0" length="1" pos="65.19000000000001"/>
    <e1Detector file="/home/kealan/College/fyp/mapdata/cork-city/detector_results/e1_output.xml" freq="4" friendlyPos="x" id="e1det_-5312334#5_0" lane="-5312334#5_0" length="1" pos="57.05"/>
    <e1Detector file="/home/kealan/College/fyp/mapdata/cork-city/detector_results/e1_output.xml" freq="4" friendlyPos="x" id="e1det_138139801#8_0" lane="138139801#8_0" length="1" pos="71.85000000000001"/>
    <e1Detector file="/home/kealan/College/fyp/mapdata/cork-city/detector_results/e1_output.xml" freq="4" friendlyPos="x" id="e1det_5312334#4_0" lane="5312334#4_0" length="1" pos="70.81"/>
    <e1Detector file="/home/kealan/College/fyp/mapdata/cork-city/detector_results/e1_output.xml" freq="4" friendlyPos="x" id="e1det_-203756780#0_1" lane="-203756780#0_1" length="1" pos="7.890000000000001"/>
    <e1Detector file="/home/kealan/College/fyp/mapdata/cork-city/detector_results/e1_output.xml" freq="4" friendlyPos="x" id="e1det_-138139938#0_0" lane="-138139938#0_0" length="1" pos="119.25"/>
    <e1Detector file="/home/kealan/College/fyp/mapdata/cork-city/detector_results/e1_output.xml" freq="4" friendlyPos="x" id="e1det_-35202667#0_0" lane="-35202667#0_0" length="1" pos="51.6"/>
    <e1Detector file="/home/kealan/College/fyp/mapdata/cork-city/detector_results/e1_output.xml" freq="4" friendlyPos="x" id="e1det_-35202667#0_1" lane="-35202667#0_1" length="1" pos="51.6"/>
    <e1Detector file="/home/kealan/College/fyp/mapdata/cork-city/detector_results/e1_output.xml" freq="4" friendlyPos="x" id="e1det_33708057#7_0" lane="33708057#7_0" length="1" pos="56.19"/>
    <e1Detector file="/home/kealan/College/fyp/mapdata/cork-city/detector_results/e1_output.xml" freq="4" friendlyPos="x" id="e1det_33708057#7_1" lane="33708057#7_1" length="1" pos="56.19"/>
    <e1Detector file="/home/kealan/College/fyp/mapdata/cork-city/detector_results/e1_output.xml" freq="4" friendlyPos="x" id="e1det_374366365#9_0" lane="374366365#9_0" length="1" pos="103.02000000000001"/>
    <e1Detector file="/home/kealan/College/fyp/mapdata/cork-city/detector_results/e1_output.xml" freq="4" friendlyPos="x" id="e1det_-138141915#0_0" lane="-138141915#0_0" length="1" pos="24.91"/>
    <e1Detector file="/home/kealan/College/fyp/mapdata/cork-city/detector_results/e1_output.xml" freq="4" friendlyPos="x" id="e1det_-477791909#0_0" lane="-477791909#0_0" length="1" pos="95.32000000000001"/>
    <e1Detector file="/home/kealan/College/fyp/mapdata/cork-city/detector_results/e1_output.xml" freq="4" friendlyPos="x" id="e1det_-477791909#0_1" lane="-477791909#0_1" length="1" pos="95.32000000000001"/>
    <e1Detector file="/home/kealan/College/fyp/mapdata/cork-city/detector_results/e1_output.xml" freq="4" friendlyPos="x" id="e1det_22635043#1_1" lane="22635043#1_1" length="1" pos="105.22"/>
    <e1Detector file="/home/kealan/College/fyp/mapdata/cork-city/detector_results/e1_output.xml" freq="4" friendlyPos="x" id="e1det_-138227397#0_0" lane="-138227397#0_0" length="1" pos="153.84"/>
    <e1Detector file="/home/kealan/College/fyp/mapdata/cork-city/detector_results/e1_output.xml" freq="4" friendlyPos="x" id="e1det_-26584994_0" lane="-26584994_0" length="1" pos="307.65999999999997"/>
    <e1Detector file="/home/kealan/College/fyp/mapdata/cork-city/detector_results/e1_output.xml" freq="4" friendlyPos="x" id="e1det_-26584994_1" lane="-26584994_1" length="1" pos="307.65999999999997"/>
    <e1Detector file="/home/kealan/College/fyp/mapdata/cork-city/detector_results/e1_output.xml" freq="4" friendlyPos="x" id="e1det_138125681#2_0" lane="138125681#2_0" length="1" pos="23.77"/>
    <e1Detector file="/home/kealan/College/fyp/mapdata/cork-city/detector_results/e1_output.xml" freq="4" friendlyPos="x" id="e1det_29313766_0" lane="29313766_0" length="1" pos="11.790000000000001"/>
    <e1Detector file="/home/kealan/College/fyp/mapdata/cork-city/detector_results/e1_output.xml" freq="4" friendlyPos="x" id="e1det_22635043#1_0" lane="22635043#1_0" length="1" pos="105.22"/>
    <e1Detector file="/home/kealan/College/fyp/mapdata/cork-city/detector_results/e1_output.xml" freq="4" friendlyPos="x" id="e1det_29313766_1" lane="29313766_1" length="1" pos="11.790000000000001"/>
    <e1Detector file="/home/kealan/College/fyp/mapdata/cork-city/detector_results/e1_output.xml" freq="4" friendlyPos="x" id="e1det_-138397654#13_0" lane="-138397654#13_0" length="1" pos="17.83"/>
    <e1Detector file="/home/kealan/College/fyp/mapdata/cork-city/detector_results/e1_output.xml" freq="4" friendlyPos="x" id="e1det_138397654#11_0" lane="138397654#11_0" length="1" pos="32.36"/>
    <e1Detector file="/home/kealan/College/fyp/mapdata/cork-city/detector_results/e1_output.xml" freq="4" friendlyPos="x" id="e1det_-138397654#9_0" lane="-138397654#9_0" length="1" pos="27.81"/>
    <e1Detector file="/home/kealan/College/fyp/mapdata/cork-city/detector_results/e1_output.xml" freq="4" friendlyPos="x" id="e1det_138397654#8_0" lane="138397654#8_0" length="1" pos="13.27"/>
    <e1Detector file="/home/kealan/College/fyp/mapdata/cork-city/detector_results/e1_output.xml" freq="4" friendlyPos="x" id="e1det_-13988575#0_0" lane="-13988575#0_0" length="1" pos="56.12"/>
    <e1Detector file="/home/kealan/College/fyp/mapdata/cork-city/detector_results/e1_output.xml" freq="4" friendlyPos="x" id="e1det_-35202670#2_0" lane="-35202670#2_0" length="1" pos="62.05"/>
    <e1Detector file="/home/kealan/College/fyp/mapdata/cork-city/detector_results/e1_output.xml" freq="4" friendlyPos="x" id="e1det_-35202670#2_1" lane="-35202670#2_1" length="1" pos="62.05"/>
    <e1Detector file="/home/kealan/College/fyp/mapdata/cork-city/detector_results/e1_output.xml" freq="4" friendlyPos="x" id="e1det_35202670#1_0" lane="35202670#1_0" length="1" pos="71.57000000000001"/>
    <e1Detector file="/home/kealan/College/fyp/mapdata/cork-city/detector_results/e1_output.xml" freq="4" friendlyPos="x" id="e1det_748206#1_0" lane="748206#1_0" length="1" pos="118.94000000000001"/>
    <e1Detector file="/home/kealan/College/fyp/mapdata/cork-city/detector_results/e1_output.xml" freq="4" friendlyPos="x" id="e1det_35202670#1_1" lane="35202670#1_1" length="1" pos="71.57000000000001"/>
    <e1Detector file="/home/kealan/College/fyp/mapdata/cork-city/detector_results/e1_output.xml" freq="4" friendlyPos="x" id="e1det_5364481_0" lane="5364481_0" length="1" pos="180.31"/>