<additional>
    <e1Detector file="/home/kealan/College/fyp/mapdata/dennehys_cross/induction_loops/e1output.xml" freq="4" friendlyPos="x" id="e1det_-138139938#0_0" lane="-138139938#0_0" length="2" pos="93.34"/>
    <e1Detector file="/home/kealan/College/fyp/mapdata/dennehys_cross/induction_loops/e1output.xml" freq="4" friendlyPos="x" id="e1det_-35202667#0_0" lane="-35202667#0_0" length="2" pos="25.689999999999998"/>
    <e1Detector file="/home/kealan/College/fyp/mapdata/dennehys_cross/induction_loops/e1output.xml" freq="4" friendlyPos="x" id="e1det_-35202667#0_1" lane="-35202667#0_1" length="2" pos="25.689999999999998"/>
    <e1Detector file="/home/kealan/College/fyp/mapdata/dennehys_cross/induction_loops/e1output.xml" freq="4" friendlyPos="x" id="e1det_33708057#3_0" lane="33708057#3_0" length="2" pos="30.29"/>
    <e1Detector file="/home/kealan/College/fyp/mapdata/dennehys_cross/induction_loops/e1output.xml" freq="4" friendlyPos="x" id="e1det_33708057#3_1" lane="33708057#3_1" length="2" pos="30.29"/>
    <e1Detector file="/home/kealan/College/fyp/mapdata/dennehys_cross/induction_loops/e1output.xml" freq="4" friendlyPos="x" id="e1det_374366365#4_0" lane="374366365#4_0" length="2" pos="77.13"/>
</additional>
