<?xml version="1.0" encoding="UTF-8"?>
<!-- generated on 2017-11-02 19:16:12.465102 by $Id: route2trips.py 26301 2017-10-02 20:48:38Z behrisch $ via randomTrips.py
  options: 
-->
<routes xmlns:xsi="http://www.w3.org/2001/XMLSchema-instance" xsi:noNamespaceSchemaLocation="http://sumo.dlr.de/xsd/routes_file.xsd">
    <vType id="bus" vClass="bus">
    </vType>
    <trip id="bus0" depart="0.00" departLane="best" from="292634308" to="-117076458#1" type="bus"/>
    <trip id="bus1" depart="1.19" departLane="best" from="-477791853" to="-31363693#0" type="bus"/>
    <trip id="bus2" depart="2.39" departLane="best" from="368359400#0" to="233809947" type="bus"/>
    <trip id="bus3" depart="3.58" departLane="best" from="74585038#6" to="-138124564#1" type="bus"/>
    <trip id="bus4" depart="4.77" departLane="best" from="103921151" to="-117076492" type="bus"/>
    <trip id="bus5" depart="5.97" departLane="best" from="-117076515#3" to="-29986843#0" type="bus"/>
    <trip id="bus6" depart="7.16" departLane="best" from="29660096#9" to="118628034#1" type="bus"/>
    <trip id="bus7" depart="8.35" departLane="best" from="-33708057#4" to="138124572#1" type="bus"/>
    <trip id="bus8" depart="9.55" departLane="best" from="5312438" to="-106107075#0" type="bus"/>
    <trip id="bus9" depart="10.74" departLane="best" from="5312405#0" to="29984545#1" type="bus"/>
    <trip id="bus10" depart="11.93" departLane="best" from="-61808827#2" to="-17504008#4" type="bus"/>
    <trip id="bus11" depart="13.13" departLane="best" from="80511347" to="-5364478" type="bus"/>
    <trip id="bus12" depart="14.32" departLane="best" from="-14204527#2" to="-138141918#0" type="bus"/>
    <trip id="bus13" depart="15.51" departLane="best" from="5312405#4" to="31328484#2" type="bus"/>
    <trip id="bus14" depart="16.71" departLane="best" from="138141919" to="75654169" type="bus"/>
    <trip id="bus15" depart="17.90" departLane="best" from="-74585097" to="1217955#4" type="bus"/>
    <trip id="bus16" depart="19.09" departLane="best" from="58197728#0" to="145681856#0" type="bus"/>
    <trip id="bus17" depart="20.29" departLane="best" from="69329617" to="138016951#2" type="bus"/>
    <trip id="bus18" depart="21.48" departLane="best" from="32431523#0" to="-117884758#0" type="bus"/>
    <trip id="bus19" depart="22.67" departLane="best" from="-366450334#0" to="-438203825" type="bus"/>
    <trip id="bus20" depart="23.87" departLane="best" from="-138141921" to="-31406616#0" type="bus"/>
    <trip id="bus21" depart="25.06" departLane="best" from="-15135515#1" to="-40325292" type="bus"/>
    <trip id="bus22" depart="26.25" departLane="best" from="274277293" to="-69231138#0" type="bus"/>
    <trip id="bus23" depart="27.45" departLane="best" from="-74585054#1" to="-29987570" type="bus"/>
    <trip id="bus24" depart="28.64" departLane="best" from="-431896177#1" to="727504" type="bus"/>
    <trip id="bus25" depart="29.83" departLane="best" from="29655224" to="138397654#4" type="bus"/>
    <trip id="bus26" depart="31.03" departLane="best" from="-29987687#2" to="31328424" type="bus"/>
    <trip id="bus27" depart="32.22" departLane="best" from="-29987290#1" to="-69329628#0" type="bus"/>
    <trip id="bus28" depart="33.41" departLane="best" from="9447279#0" to="165996559#4" type="bus"/>
    <trip id="bus29" depart="34.61" departLane="best" from="13989039#0" to="29301228#0" type="bus"/>
    <trip id="bus30" depart="35.80" departLane="best" from="61332008" to="338707030#0" type="bus"/>
    <trip id="bus31" depart="36.99" departLane="best" from="-366523649#4" to="-117076501#0" type="bus"/>
    <trip id="bus32" depart="38.19" departLane="best" from="-5364419#6" to="-368359400#0" type="bus"/>
    <trip id="bus33" depart="39.38" departLane="best" from="-32431687#1" to="74585038#13" type="bus"/>
    <trip id="bus34" depart="40.57" departLane="best" from="727171#3" to="-52066377#0" type="bus"/>
    <trip id="bus35" depart="41.77" departLane="best" from="29985940#1" to="-74584976" type="bus"/>
    <trip id="bus36" depart="42.96" departLane="best" from="747232#0" to="-75654228" type="bus"/>
    <trip id="bus37" depart="44.15" departLane="best" from="-41741617" to="-33696904#0" type="bus"/>
    <trip id="bus38" depart="45.35" departLane="best" from="165618647#0" to="55637437#1" type="bus"/>
    <trip id="bus39" depart="46.54" departLane="best" from="-75654201#1" to="-31328473" type="bus"/>
    <trip id="bus40" depart="47.73" departLane="best" from="98387844" to="108987506#0" type="bus"/>
    <trip id="bus41" depart="48.92" departLane="best" from="-13989743#3" to="-117884763#1" type="bus"/>
    <trip id="bus42" depart="50.12" departLane="best" from="-165996559#7" to="14891114#2" type="bus"/>
    <trip id="bus43" depart="51.31" departLane="best" from="52066381#0" to="-74816878#0" type="bus"/>
    <trip id="bus44" depart="52.50" departLane="best" from="-138016960#2" to="-69600627#1" type="bus"/>
    <trip id="bus45" depart="53.70" departLane="best" from="98387831#0" to="117076501#1" type="bus"/>
    <trip id="bus46" depart="54.89" departLane="best" from="85523611" to="523111039#0" type="bus"/>
    <trip id="bus47" depart="56.08" departLane="best" from="-110781514#1" to="29987690" type="bus"/>
    <trip id="bus48" depart="57.28" departLane="best" from="-430265853" to="165996559#9" type="bus"/>
    <trip id="bus49" depart="58.47" departLane="best" from="-165996568#0" to="-75654180" type="bus"/>
    <trip id="bus50" depart="59.66" departLane="best" from="117076485#0" to="74585090#2" type="bus"/>
    <trip id="bus51" depart="60.86" departLane="best" from="727170" to="-366528055#2" type="bus"/>
    <trip id="bus52" depart="62.05" departLane="best" from="135342446#6" to="-274277293" type="bus"/>
    <trip id="bus53" depart="63.24" departLane="best" from="74585119" to="5312389#0" type="bus"/>
    <trip id="bus54" depart="64.44" departLane="best" from="203756779" to="-174920364#0" type="bus"/>
    <trip id="bus55" depart="65.63" departLane="best" from="434367588" to="117884767#1" type="bus"/>
    <trip id="bus56" depart="66.82" departLane="best" from="477791961#0" to="117076501#7" type="bus"/>
    <trip id="bus57" depart="68.02" departLane="best" from="-104004845" to="-5312403#5" type="bus"/>
    <trip id="bus58" depart="69.21" departLane="best" from="-117076457#2" to="69329629#2" type="bus"/>
    <trip id="bus59" depart="70.40" departLane="best" from="727503#1" to="432966429#1" type="bus"/>
    <trip id="bus60" depart="71.60" departLane="best" from="-5312405#5" to="-118720864" type="bus"/>
    <trip id="bus61" depart="72.79" departLane="best" from="727181" to="74585062#1" type="bus"/>
    <trip id="bus62" depart="73.98" departLane="best" from="-138397654#16" to="-85523670#0" type="bus"/>
    <trip id="bus63" depart="75.18" departLane="best" from="-138124572#2" to="32431523#1" type="bus"/>
    <trip id="bus64" depart="76.37" departLane="best" from="477599183#0" to="-15135683#1" type="bus"/>
    <trip id="bus65" depart="77.56" departLane="best" from="118611605#0" to="1217150#8" type="bus"/>
    <trip id="bus66" depart="78.76" departLane="best" from="-41741617" to="5312400#2" type="bus"/>
    <trip id="bus67" depart="79.95" departLane="best" from="103921166" to="-29987687#0" type="bus"/>
    <trip id="bus68" depart="81.14" departLane="best" from="-31406616#2" to="-51012849#1" type="bus"/>
    <trip id="bus69" depart="82.34" departLane="best" from="98387829#0" to="174920301" type="bus"/>
    <trip id="bus71" depart="84.72" departLane="best" from="-17504008#1" to="-31363733#0" type="bus"/>
    <trip id="bus72" depart="85.92" departLane="best" from="-61755064#3" to="138124569#4" type="bus"/>
    <trip id="bus73" depart="87.11" departLane="best" from="-366528055#0" to="-31359976#0" type="bus"/>
    <trip id="bus74" depart="88.30" departLane="best" from="-138136762#1" to="15136435#0" type="bus"/>
    <trip id="bus76" depart="90.69" departLane="best" from="69329603#0" to="-135342446#0" type="bus"/>
    <trip id="bus77" depart="91.88" departLane="best" from="-374366365#5" to="22380251#0" type="bus"/>
    <trip id="bus78" depart="93.08" departLane="best" from="-33682824#1" to="-151390592#1" type="bus"/>
    <trip id="bus79" depart="94.27" departLane="best" from="75654200#0" to="137231946#0" type="bus"/>
    <trip id="bus80" depart="95.46" departLane="best" from="117884765" to="366523649#6" type="bus"/>
    <trip id="bus81" depart="96.66" departLane="best" from="5312405#6" to="-29985841#2" type="bus"/>
    <trip id="bus82" depart="97.85" departLane="best" from="-14795618#0" to="-75654173" type="bus"/>
    <trip id="bus83" depart="99.04" departLane="best" from="104051179" to="-80528758#1" type="bus"/>
    <trip id="bus84" depart="100.24" departLane="best" from="35389138#5" to="22634602#4" type="bus"/>
    <trip id="bus85" depart="101.43" departLane="best" from="-75654207#4" to="-5364535#0" type="bus"/>
    <trip id="bus86" depart="102.62" departLane="best" from="69329617" to="-33696906#1" type="bus"/>
    <trip id="bus87" depart="103.82" departLane="best" from="-31405707#0" to="-75654217" type="bus"/>
    <trip id="bus88" depart="105.01" departLane="best" from="103921151" to="-40325292" type="bus"/>
    <trip id="bus89" depart="106.20" departLane="best" from="-41741601#1" to="69329619#1" type="bus"/>
    <trip id="bus90" depart="107.40" departLane="best" from="114395942" to="5304628#1" type="bus"/>
    <trip id="bus91" depart="108.59" departLane="best" from="138397651#3" to="-117983125" type="bus"/>
    <trip id="bus92" depart="109.78" departLane="best" from="98669439#0" to="477599166-AddedOffRampEdge" type="bus"/>
    <trip id="bus93" depart="110.98" departLane="best" from="84603737" to="69329624#1" type="bus"/>
    <trip id="bus94" depart="112.17" departLane="best" from="119143323" to="-31326983#1" type="bus"/>
    <trip id="bus95" depart="113.36" departLane="best" from="-75654203#2" to="-118720864" type="bus"/>
    <trip id="bus96" depart="114.56" departLane="best" from="-74585101#2" to="80528758#2" type="bus"/>
    <trip id="bus97" depart="115.75" departLane="best" from="-41741617" to="366523649#3" type="bus"/>
    <trip id="bus98" depart="116.94" departLane="best" from="117076492" to="-74816884#0" type="bus"/>
    <trip id="bus99" depart="118.14" departLane="best" from="80511347" to="96385706#1" type="bus"/>
    <trip id="bus100" depart="119.33" departLane="best" from="13988575#1" to="29987648#3" type="bus"/>
    <trip id="bus101" depart="120.52" departLane="best" from="-29986682#0" to="-477791907#3" type="bus"/>
    <trip id="bus102" depart="121.72" departLane="best" from="81157529" to="138016956#4" type="bus"/>
    <trip id="bus103" depart="122.91" departLane="best" from="138287711" to="31406507#1" type="bus"/>
    <trip id="bus104" depart="124.10" departLane="best" from="-137231947#1" to="138017526#1" type="bus"/>
    <trip id="bus105" depart="125.30" departLane="best" from="135349964#4" to="502059533" type="bus"/>
    <trip id="bus106" depart="126.49" departLane="best" from="-29986775#2" to="74585131" type="bus"/>
    <trip id="bus107" depart="127.68" departLane="best" from="-138141922#1" to="-29660096#4" type="bus"/>
    <trip id="bus108" depart="128.88" departLane="best" from="17187928#5" to="22635068#0" type="bus"/>
    <trip id="bus109" depart="130.07" departLane="best" from="-368359402#0" to="-139904133" type="bus"/>
    <trip id="bus110" depart="131.26" departLane="best" from="74585038#14" to="-33696902#3" type="bus"/>
    <trip id="bus111" depart="132.46" departLane="best" from="170239185#0" to="146344008#0" type="bus"/>
    <trip id="bus112" depart="133.65" departLane="best" from="-98669439#2" to="138017448" type="bus"/>
    <trip id="bus113" depart="134.84" departLane="best" from="-31406807#1" to="29987350#1" type="bus"/>
    <trip id="bus114" depart="136.04" departLane="best" from="-374366365#9" to="-74584976" type="bus"/>
    <trip id="bus115" depart="137.23" departLane="best" from="29987290#3" to="-477791945#0" type="bus"/>
    <trip id="bus116" depart="138.42" departLane="best" from="-5364447#3" to="31406553" type="bus"/>
    <trip id="bus117" depart="139.62" departLane="best" from="-138136767#1" to="-75654228" type="bus"/>
    <trip id="bus118" depart="140.81" departLane="best" from="98392667#0" to="98387820#1" type="bus"/>
    <trip id="bus119" depart="142.00" departLane="best" from="-138137984#1" to="-310217826#0" type="bus"/>
    <trip id="bus120" depart="143.19" departLane="best" from="-41741617" to="727153" type="bus"/>
    <trip id="bus121" depart="144.39" departLane="best" from="727508#1" to="5364412#5" type="bus"/>
    <trip id="bus122" depart="145.58" departLane="best" from="-74585054#1" to="-20361913#4" type="bus"/>
    <trip id="bus124" depart="147.97" departLane="best" from="203756782#9" to="81157532" type="bus"/>
    <trip id="bus125" depart="149.16" departLane="best" from="29985841#2" to="-107185799#2" type="bus"/>
    <trip id="bus126" depart="150.35" departLane="best" from="5364468#0" to="-477791944#0" type="bus"/>
    <trip id="bus127" depart="151.55" departLane="best" from="29986861#3" to="727509#3" type="bus"/>
    <trip id="bus128" depart="152.74" departLane="best" from="-224709345#0" to="-138964140#0" type="bus"/>
    <trip id="bus129" depart="153.93" departLane="best" from="-165618647#3" to="1218075" type="bus"/>
    <trip id="bus130" depart="155.13" departLane="best" from="33707174" to="-29986909" type="bus"/>
    <trip id="bus131" depart="156.32" departLane="best" from="274277291" to="-366528055#5" type="bus"/>
    <trip id="bus133" depart="158.71" departLane="best" from="104051179" to="-38867880" type="bus"/>
    <trip id="bus134" depart="159.90" departLane="best" from="-104987298#2" to="33696912#0" type="bus"/>
    <trip id="bus135" depart="161.09" departLane="best" from="279054333#0" to="-366523649#3" type="bus"/>
    <trip id="bus136" depart="162.29" departLane="best" from="374366365#4" to="1217955#1" type="bus"/>
    <trip id="bus137" depart="163.48" departLane="best" from="107185799#2" to="-108987509" type="bus"/>
    <trip id="bus138" depart="164.67" departLane="best" from="-138139801#0" to="5364446#1" type="bus"/>
    <trip id="bus139" depart="165.87" departLane="best" from="74585085" to="118631280#0" type="bus"/>
    <trip id="bus141" depart="168.25" departLane="best" from="-29712350#1" to="-15134931#0" type="bus"/>
    <trip id="bus142" depart="169.45" departLane="best" from="-5312409" to="56238546" type="bus"/>
    <trip id="bus143" depart="170.64" departLane="best" from="5312299#1" to="523111039#0" type="bus"/>
    <trip id="bus144" depart="171.83" departLane="best" from="-41741601#1" to="-138287711" type="bus"/>
    <trip id="bus145" depart="173.03" departLane="best" from="477791969#1" to="5364447#3" type="bus"/>
    <trip id="bus146" depart="174.22" departLane="best" from="-78055483#2" to="146344008#6" type="bus"/>
    <trip id="bus147" depart="175.41" departLane="best" from="-29986656#0" to="69329629#3" type="bus"/>
    <trip id="bus148" depart="176.61" departLane="best" from="69329623#2" to="75654198#1" type="bus"/>
    <trip id="bus149" depart="177.80" departLane="best" from="5364412#11" to="5364418#1" type="bus"/>
    <trip id="bus150" depart="178.99" departLane="best" from="-117076507#1" to="31404987" type="bus"/>
    <trip id="bus152" depart="181.38" departLane="best" from="5312389#0" to="5312304" type="bus"/>
    <trip id="bus153" depart="182.57" departLane="best" from="5364412#11" to="-367573430#0" type="bus"/>
    <trip id="bus155" depart="184.96" departLane="best" from="72449432#0" to="52066380" type="bus"/>
    <trip id="bus156" depart="186.15" departLane="best" from="-338707030#1" to="41741608" type="bus"/>
    <trip id="bus157" depart="187.35" departLane="best" from="117076508" to="-477791968#0" type="bus"/>
    <trip id="bus158" depart="188.54" departLane="best" from="5304636" to="-31405058" type="bus"/>
    <trip id="bus159" depart="189.73" departLane="best" from="-117076501#6" to="-29986000" type="bus"/>
    <trip id="bus160" depart="190.93" departLane="best" from="-58197693" to="5312305" type="bus"/>
    <trip id="bus161" depart="192.12" departLane="best" from="81157525" to="-414126482#0" type="bus"/>
    <trip id="bus162" depart="193.31" departLane="best" from="29301230#4" to="-74585053" type="bus"/>
    <trip id="bus163" depart="194.51" departLane="best" from="85523670#2" to="117581384#1" type="bus"/>
    <trip id="bus164" depart="195.70" departLane="best" from="75654203#0" to="-138964140#0" type="bus"/>
    <trip id="bus165" depart="196.89" departLane="best" from="85523611" to="-274277293" type="bus"/>
    <trip id="bus166" depart="198.09" departLane="best" from="81157516" to="-366788789#1" type="bus"/>
    <trip id="bus167" depart="199.28" departLane="best" from="-165996559#14" to="-75654178#2" type="bus"/>
    <trip id="bus168" depart="200.47" departLane="best" from="35389138#2" to="-52066372#1" type="bus"/>
    <trip id="bus169" depart="201.67" departLane="best" from="192516664" to="108997115" type="bus"/>
    <trip id="bus170" depart="202.86" departLane="best" from="-747232#1" to="138016950#2" type="bus"/>
    <trip id="bus171" depart="204.05" departLane="best" from="-41741606" to="29986878#0" type="bus"/>
    <trip id="bus172" depart="205.25" departLane="best" from="-104005051" to="69329623#3" type="bus"/>
    <trip id="bus173" depart="206.44" departLane="best" from="138231125#0" to="29987668#0" type="bus"/>
    <trip id="bus174" depart="207.63" departLane="best" from="374366365#8" to="224709345#1" type="bus"/>
    <trip id="bus175" depart="208.83" departLane="best" from="-73552050#4" to="-135340274#0" type="bus"/>
    <trip id="bus176" depart="210.02" departLane="best" from="29986878#3" to="-5364412#8" type="bus"/>
    <trip id="bus177" depart="211.21" departLane="best" from="-5364417" to="477791961#1" type="bus"/>
    <trip id="bus178" depart="212.41" departLane="best" from="-5317242" to="-74585079" type="bus"/>
    <trip id="bus179" depart="213.60" departLane="best" from="-75654207#3" to="-477791900#0" type="bus"/>
    <trip id="bus180" depart="214.79" departLane="best" from="-203756782#8" to="-747232#2" type="bus"/>
    <trip id="bus181" depart="215.99" departLane="best" from="75654207#4" to="236324352" type="bus"/>
    <trip id="bus182" depart="217.18" departLane="best" from="74585083" to="14203556#0" type="bus"/>
    <trip id="bus183" depart="218.37" departLane="best" from="-5312334#8" to="1217150#10" type="bus"/>
    <trip id="bus184" depart="219.57" departLane="best" from="-104004845" to="-431896177#0" type="bus"/>
    <trip id="bus185" depart="220.76" departLane="best" from="108987499" to="138016960#0" type="bus"/>
    <trip id="bus186" depart="221.95" departLane="best" from="29985881#0" to="-80511377" type="bus"/>
    <trip id="bus187" depart="223.15" departLane="best" from="114395941" to="-31326983#1" type="bus"/>
    <trip id="bus188" depart="224.34" departLane="best" from="117884767#0" to="58197732#2" type="bus"/>
    <trip id="bus189" depart="225.53" departLane="best" from="5312299#0" to="-22635043#0" type="bus"/>
    <trip id="bus190" depart="226.73" departLane="best" from="-138397654#10" to="110781514#1" type="bus"/>
    <trip id="bus191" depart="227.92" departLane="best" from="26630146#0" to="-5364469#0" type="bus"/>
    <trip id="bus192" depart="229.11" departLane="best" from="5364468#6" to="31406553" type="bus"/>
    <trip id="bus193" depart="230.31" departLane="best" from="29987349#2" to="-31363733#0" type="bus"/>
    <trip id="bus194" depart="231.50" departLane="best" from="-41728143#1" to="-85523610" type="bus"/>
    <trip id="bus195" depart="232.69" departLane="best" from="65512426" to="-135350072#0" type="bus"/>
    <trip id="bus196" depart="233.89" departLane="best" from="-31406498" to="29660096#7" type="bus"/>
    <trip id="bus197" depart="235.08" departLane="best" from="129111146#2" to="-33682822#4" type="bus"/>
    <trip id="bus198" depart="236.27" departLane="best" from="29986000" to="-104987298#1" type="bus"/>
    <trip id="bus199" depart="237.46" departLane="best" from="41502796" to="33696908" type="bus"/>
    <trip id="bus200" depart="238.66" departLane="best" from="-163732385#5" to="-74816887" type="bus"/>
    <trip id="bus201" depart="239.85" departLane="best" from="-31327281" to="74585117" type="bus"/>
    <trip id="bus202" depart="241.04" departLane="best" from="138016963#2" to="-117983125" type="bus"/>
    <trip id="bus203" depart="242.24" departLane="best" from="-41741600" to="477791962#0" type="bus"/>
    <trip id="bus204" depart="243.43" departLane="best" from="117076495" to="39861649#1" type="bus"/>
    <trip id="bus205" depart="244.62" departLane="best" from="29986916" to="81157532" type="bus"/>
    <trip id="bus206" depart="245.82" departLane="best" from="173776672" to="74585070#1" type="bus"/>
    <trip id="bus207" depart="247.01" departLane="best" from="74585038#21" to="13989039#1" type="bus"/>
    <trip id="bus208" depart="248.20" departLane="best" from="33708057#7" to="106107145#1" type="bus"/>
    <trip id="bus210" depart="250.59" departLane="best" from="74585066" to="31406359#2" type="bus"/>
    <trip id="bus211" depart="251.78" departLane="best" from="117983125" to="-35202667#3" type="bus"/>
    <trip id="bus212" depart="252.98" departLane="best" from="-41741598#1" to="165618647#4" type="bus"/>
    <trip id="bus213" depart="254.17" departLane="best" from="477599183#0" to="114395935#5" type="bus"/>
    <trip id="bus214" depart="255.36" departLane="best" from="236512046" to="-374366365#9" type="bus"/>
    <trip id="bus215" depart="256.56" departLane="best" from="-138139801#9" to="-426201667" type="bus"/>
    <trip id="bus216" depart="257.75" departLane="best" from="-462149208" to="-5312334#4" type="bus"/>
    <trip id="bus217" depart="258.94" departLane="best" from="138253598" to="-163732385#5" type="bus"/>
    <trip id="bus218" depart="260.14" departLane="best" from="32431653" to="-1217150#1" type="bus"/>
    <trip id="bus219" depart="261.33" departLane="best" from="-80511374" to="118611615" type="bus"/>
    <trip id="bus220" depart="262.52" departLane="best" from="-96385706#1" to="-29987290#1" type="bus"/>
    <trip id="bus222" depart="264.91" departLane="best" from="165598295" to="29660096#1" type="bus"/>
    <trip id="bus223" depart="266.10" departLane="best" from="69323540#0" to="33682822#4" type="bus"/>
    <trip id="bus224" depart="267.30" departLane="best" from="-74585112" to="-106107075#0" type="bus"/>
    <trip id="bus226" depart="269.68" departLane="best" from="69265457#2" to="74585090#0" type="bus"/>
    <trip id="bus227" depart="270.88" departLane="best" from="-98669439#1" to="31406507#1" type="bus"/>
    <trip id="bus228" depart="272.07" departLane="best" from="138289835" to="138141923#1" type="bus"/>
    <trip id="bus229" depart="273.26" departLane="best" from="-33708057#5" to="-31328484#0" type="bus"/>
    <trip id="bus230" depart="274.46" departLane="best" from="110781521#0" to="-117076485#0" type="bus"/>
    <trip id="bus231" depart="275.65" departLane="best" from="-61188950#0" to="2390357#2" type="bus"/>
    <trip id="bus232" depart="276.84" departLane="best" from="-75654209#4" to="-214799235#0" type="bus"/>
    <trip id="bus233" depart="278.04" departLane="best" from="117167172" to="-15134931#1" type="bus"/>
    <trip id="bus234" depart="279.23" departLane="best" from="22634728#0" to="-117076470" type="bus"/>
    <trip id="bus235" depart="280.42" departLane="best" from="-75589354" to="135342446#4" type="bus"/>
    <trip id="bus237" depart="282.81" departLane="best" from="-129449085" to="-69329628#0" type="bus"/>
    <trip id="bus238" depart="284.00" departLane="best" from="-32698091" to="-5312409" type="bus"/>
    <trip id="bus239" depart="285.20" departLane="best" from="432966429#0" to="-69329628#0" type="bus"/>
    <trip id="bus240" depart="286.39" departLane="best" from="41741598#0" to="432966429#2" type="bus"/>
    <trip id="bus241" depart="287.58" departLane="best" from="-41741604#1" to="-138016960#2" type="bus"/>
    <trip id="bus242" depart="288.78" departLane="best" from="-117076457#2" to="117884767#1" type="bus"/>
    <trip id="bus244" depart="291.16" departLane="best" from="29985131#0" to="31406652#1" type="bus"/>
    <trip id="bus245" depart="292.36" departLane="best" from="75654223" to="-29986861#0" type="bus"/>
    <trip id="bus246" depart="293.55" departLane="best" from="-117076459" to="-174920348" type="bus"/>
    <trip id="bus247" depart="294.74" departLane="best" from="-203756782#1" to="22380251#2" type="bus"/>
    <trip id="bus248" depart="295.94" departLane="best" from="145681427" to="-31328400#1" type="bus"/>
    <trip id="bus249" depart="297.13" departLane="best" from="31406616#1" to="33682824#1" type="bus"/>
    <trip id="bus250" depart="298.32" departLane="best" from="-29987431#2" to="138397654#1" type="bus"/>
    <trip id="bus251" depart="299.52" departLane="best" from="5364469#3" to="74816884#1" type="bus"/>
    <trip id="bus252" depart="300.71" departLane="best" from="-165996559#11" to="-117076469#0" type="bus"/>
    <trip id="bus253" depart="301.90" departLane="best" from="-5364412#5" to="236324352" type="bus"/>
    <trip id="bus254" depart="303.10" departLane="best" from="80511356#0" to="-74585038#11" type="bus"/>
    <trip id="bus255" depart="304.29" departLane="best" from="33696905#1" to="-137231949#1" type="bus"/>
    <trip id="bus256" depart="305.48" departLane="best" from="31363706#2" to="14891114#0" type="bus"/>
    <trip id="bus257" depart="306.68" departLane="best" from="68607156#1" to="138141915#1" type="bus"/>
    <trip id="bus258" depart="307.87" departLane="best" from="-17504008#2" to="80511334" type="bus"/>
    <trip id="bus260" depart="310.26" departLane="best" from="107254700#0" to="-69323540#1" type="bus"/>
    <trip id="bus261" depart="311.45" departLane="best" from="137231945#2" to="-58197696#0" type="bus"/>
    <trip id="bus262" depart="312.64" departLane="best" from="64526974" to="41741615" type="bus"/>
    <trip id="bus263" depart="313.84" departLane="best" from="-163732385#0" to="74585131" type="bus"/>
    <trip id="bus264" depart="315.03" departLane="best" from="274277293" to="431720241#1" type="bus"/>
    <trip id="bus265" depart="316.22" departLane="best" from="32431663" to="-75654180" type="bus"/>
    <trip id="bus266" depart="317.42" departLane="best" from="366788789#1" to="74816894#1" type="bus"/>
    <trip id="bus267" depart="318.61" departLane="best" from="-432966429#0" to="41741600" type="bus"/>
    <trip id="bus268" depart="319.80" departLane="best" from="138231124" to="-85523638" type="bus"/>
    <trip id="bus270" depart="322.19" departLane="best" from="-432075390" to="501600594#7" type="bus"/>
    <trip id="bus272" depart="324.58" departLane="best" from="727510#0" to="-33682822#3" type="bus"/>
    <trip id="bus273" depart="325.77" departLane="best" from="117076530" to="138397656" type="bus"/>
    <trip id="bus274" depart="326.96" departLane="best" from="-74585101#2" to="-117076485#0" type="bus"/>
    <trip id="bus275" depart="328.16" departLane="best" from="69228022#0" to="-29313766" type="bus"/>
    <trip id="bus276" depart="329.35" departLane="best" from="-32698091" to="38863924" type="bus"/>
    <trip id="bus277" depart="330.54" departLane="best" from="-61808827#2" to="5364413" type="bus"/>
    <trip id="bus278" depart="331.73" departLane="best" from="31406793#0" to="-38867880" type="bus"/>
    <trip id="bus279" depart="332.93" departLane="best" from="-138397654#16" to="29987687#2" type="bus"/>
    <trip id="bus280" depart="334.12" departLane="best" from="1217150#2" to="31406816#1" type="bus"/>
    <trip id="bus281" depart="335.31" departLane="best" from="31363706#2" to="170229604#0" type="bus"/>
    <trip id="bus282" depart="336.51" departLane="best" from="1217955#4" to="374366365#3" type="bus"/>
    <trip id="bus283" depart="337.70" departLane="best" from="-14207124#0" to="-31363574" type="bus"/>
    <trip id="bus284" depart="338.89" departLane="best" from="31405002#0" to="-477791970" type="bus"/>
    <trip id="bus285" depart="340.09" departLane="best" from="154411011" to="-81157525" type="bus"/>
    <trip id="bus286" depart="341.28" departLane="best" from="138137986#2" to="-74816894#0" type="bus"/>
    <trip id="bus287" depart="342.47" departLane="best" from="38840379" to="-5364418#0" type="bus"/>
    <trip id="bus288" depart="343.67" departLane="best" from="31407186#0" to="-368374360#0" type="bus"/>
    <trip id="bus289" depart="344.86" departLane="best" from="-41741604#0" to="-139904133" type="bus"/>
    <trip id="bus290" depart="346.05" departLane="best" from="-31406382#0" to="-13990182#2" type="bus"/>
    <trip id="bus291" depart="347.25" departLane="best" from="138141919" to="32431659" type="bus"/>
    <trip id="bus292" depart="348.44" departLane="best" from="-31404987" to="-31327366#0" type="bus"/>
    <trip id="bus293" depart="349.63" departLane="best" from="118930372" to="31312138#2" type="bus"/>
    <trip id="bus294" depart="350.83" departLane="best" from="85523633" to="117076454#1" type="bus"/>
    <trip id="bus295" depart="352.02" departLane="best" from="-477791947#1" to="-138231125#5" type="bus"/>
    <trip id="bus296" depart="353.21" departLane="best" from="-31406498" to="-31405058" type="bus"/>
    <trip id="bus297" depart="354.41" departLane="best" from="-31328484#2" to="-110781526#0" type="bus"/>
    <trip id="bus298" depart="355.60" departLane="best" from="138141915#1" to="-374366365#7" type="bus"/>
    <trip id="bus299" depart="356.79" departLane="best" from="85523627" to="1219403#0" type="bus"/>
    <trip id="bus300" depart="357.99" departLane="best" from="31406434" to="-14856675#0" type="bus"/>
    <trip id="bus301" depart="359.18" departLane="best" from="69600627#0" to="-89230768#0" type="bus"/>
    <trip id="bus302" depart="360.37" departLane="best" from="72449432#0" to="137231950#0" type="bus"/>