<?xml version="1.0" encoding="UTF-8"?>

<!-- generated on Thu Nov  2 19:16:11 2017 by SUMO duarouter Version 0.30.0
<?xml version="1.0" encoding="UTF-8"?>

<configuration xmlns:xsi="http://www.w3.org/2001/XMLSchema-instance" xsi:noNamespaceSchemaLocation="http://sumo.dlr.de/xsd/duarouterConfiguration.xsd">

    <input>
        <net-file value="osm.net.xml"/>
        <route-files value="osm.bus.trips.xml"/>
    </input>

    <output>
        <output-file value="osm.bus.rou.xml"/>
    </output>

    <processing>
        <ignore-errors value="true"/>
    </processing>

    <time>
        <begin value="0"/>
        <end value="3600.0"/>
    </time>

    <report>
        <no-warnings value="true"/>
        <no-step-log value="true"/>
    </report>

</configuration>
-->

<routes xmlns:xsi="http://www.w3.org/2001/XMLSchema-instance" xsi:noNamespaceSchemaLocation="http://sumo.dlr.de/xsd/routes_file.xsd">
    <vType id="bus" vClass="bus"/>
    <vehicle id="bus0" type="bus" depart="0.00" departLane="best">
        <route edges="292634308 129451612 -521674280 747232#0 747232#1 747232#2 747232#4 747232#5 747232#7 129518739#0 129518739#1 22635068#0 22635068#1 29425839#0 29425839#2 29425839#3 29425839#4 29425839#5 29425839#6 29425839#7 -175660899#2 -175660899#0 137231949#0 137231949#1 -85524286#2 -85524286#1 -85524286#0 -338707030#6 -338707030#5 -338707030#4 -338707030#2 -338707030#1 -338707030#0 -5312400#3 31406359#0 31406359#2 -117076515#1 -117076458#1"/>
    </vehicle>
    <vehicle id="bus1" type="bus" depart="1.19" departLane="best">
        <route edges="-477791853 -29660096#8 -29660096#7 -29986843#1 29986775#1 -29986759#1 -29986759#0 -29986731 -29986710#0 29986682#1 29986682#2 29986682#3 29986656#1 366523649#6 366523649#7 366448839#1 138017526#0 138017526#1 138017526#2 -74585079 477791947#1 477791947#2 477791947#3 477791947#4 477791947#5 -46855652#1 -46855652#0 -117076454#2 -117076454#1 -117076454#0 -477791946 138231125#0 138231125#1 138231125#2 138231125#4 138231125#5 117076501#3 117076501#4 117076501#5 -114395957#3 31363693#0 -31363693#0"/>
    </vehicle>
    <vehicle id="bus2" type="bus" depart="2.39" departLane="best">
        <route edges="368359400#0 368359400#2 368359400#3 368359400#4 368359400#5 38840379 5364469#0 5364469#1 5364469#2 5364469#3 368359401#0 368359401#1 -477791897#2 -477791897#1 -477791897#0 -477791900#2 -477791900#1 -477791900#0 -477791859#2 -477791859#1 -477791859#0 -20361913#10 -20361913#9 -20361913#8 -20361913#7 -20361913#6 -20361913#5 -20361913#4 -20361913#2 -108987509 -108987505#0 80511356#1 292634308 129451612 14890634#0 14890634#1 14890634#2 31404826#1 224709345#0 224709345#1 224709345#2 39861649#1 39861649#2 -55637437#1 -55637437#0 -317727542 159762888#0 159762888#1 55637430 20647689 20647714#2 14891038 29427155 38375347 41517429 233809947"/>
    </vehicle>
    <vehicle id="bus3" type="bus" depart="3.58" departLane="best">
        <route edges="74585038#6 -74585038#6 -74585038#5 -74585038#3 -74585038#2 -74585038#1 -74585038#0 -29660096#3 -29660096#2 -29660096#1 -29660096#0 477791976#0 477791976#1 477791976#2 366450334#1 477791972#1 366523649#1 366523649#2 366523649#3 366523649#4 366523649#5 366523649#6 366523649#7 366448839#1 -138016956#10 -138016956#9 -138016956#8 -138016956#7 -138016956#6 -138016956#4 14203556#0 14203556#1 29735322#0 29735322#1 85523624#0 85523624#1 85523624#3 85523624#4 13989743#0 13989743#1 13989743#2 13989743#3 477791912 477791945#0 477791945#2 5364417 118156054 85523646#1 85523646#2 85523646#4 477791925 42442573#0 42442573#1 42442573#2 42442573#3 137231945#0 137231945#1 137231945#2 137231945#3 137231945#4 137231945#5 137231945#6 224709285#1 5312298 29427357 14894535 -138124572#2 -138124572#1 -138124572#0 138124564#0 138124564#1 -138124564#1"/>
    </vehicle>
    <vehicle id="bus4" type="bus" depart="4.77" departLane="best">
        <route edges="103921151 -20361913#2 -108987509 -108987505#0 80511356#1 292634308 129451612 -521674280 747232#0 747232#1 747232#2 747232#4 747232#5 747232#7 129518739#0 129518739#1 22635068#0 22635068#1 29425839#0 29425839#2 29425839#3 29425839#4 29425839#5 29425839#6 29425839#7 -175660899#2 -175660899#0 137231949#0 137231949#1 -85523646#4 -85523646#2 -85523646#1 -118156054 -5364417 -477791945#2 -477791945#0 -477791912 -13989743#3 -13989743#2 -13989743#1 -13989743#0 -85523624#4 -85523624#3 -85523624#1 -85523624#0 -501600594#8 -501600594#7 -501600594#6 -501600594#5 -117076469#1 -117076492"/>
    </vehicle>
    <vehicle id="bus5" type="bus" depart="5.97" departLane="best">
        <route edges="-117076515#3 -117076515#2 -31406359#2 -31406359#0 -5312400#2 -5312400#1 -5312400#0 -501600594#6 -501600594#5 -501600594#4 -501600594#3 -501600594#2 -501600594#1 -501600594#0 -477791947#7 -477791947#5 -477791947#4 -477791947#3 -477791947#2 -477791947#1 74585079 -138017526#2 -138017526#1 -138017526#0 -366448839#1 -366448839#0 -366523649#6 -29986656#1 -29986682#3 -29986682#2 -29986682#1 29986710#0 29986731 29986759#0 29986759#1 -29986775#1 -29986843#0"/>
    </vehicle>
    <vehicle id="bus6" type="bus" depart="7.16" departLane="best">
        <route edges="29660096#9 -69329613#3 -69329613#1 -69329613#0 -203756782#9 -203756782#8 -203756782#6 -203756782#5 -203756782#4 -203756782#3 -203756782#2 -203756782#1 -203756782#0 -118611615 118611609 236672712 236672711 35389138#0 35389138#1 118631260 523111039#1 118628034#0 118628034#1"/>
    </vehicle>
    <vehicle id="bus7" type="bus" depart="8.35" departLane="best">
        <route edges="-33708057#4 -33708057#3 -33708057#2 -33708057#1 -33708056#1 -33708056#0 204614031 204614032 -283487903#1 -283487903#0 -477791909#2 -477791909#0 -22635043#1 -22635043#0 165723781#0 22635046#0 22635046#1 182651962 5304633#0 5304633#2 224709287 129518739#0 129518739#1 22635068#0 22635068#1 61188951 -73552050#4 -73552050#3 -73552050#2 -73552050#0 -138124564#3 -138124564#1 -138124564#0 138124572#0 138124572#1"/>
    </vehicle>
    <vehicle id="bus8" type="bus" depart="9.55" departLane="best">
        <route edges="5312438 38863924 31312156#0 31312156#1 31312126 -138397654#1 -138397654#0 -40950946#0 -61188951 29425839#0 29425839#2 29425839#3 29425839#4 29425839#5 29425839#6 29425839#7 13989809#1 477791910#0 477791910#1 477791910#2 22634594 -129462269#1 -129462269#0 -204876015 -13989057#3 5312391#0 5312391#1 61188948#1 61188950#0 61188950#1 138016956#0 138016956#1 138016956#2 138016956#4 138016956#6 138016956#7 138016956#8 138016956#9 138016956#10 -366448839#1 -366448839#0 -366523649#6 -366523649#5 -366523649#4 -366523649#3 -366523649#2 -366523649#1 -366523649#0 -366450334#1 -366450334#0 -477791976#1 -477791976#0 29660096#0 29660096#1 29660096#2 29660096#3 74585038#0 74585038#1 74585038#2 74585038#3 74585038#5 74585038#6 74585038#7 74585038#9 74585038#10 -106107075#1 -106107075#0"/>
    </vehicle>
    <vehicle id="bus9" type="bus" depart="10.74" departLane="best">
        <route edges="5312405#0 5312405#1 5312405#2 5312405#3 5312405#4 5312405#5 5312405#6 5312405#7 5312405#8 203756782#0 203756782#1 203756782#2 203756782#3 203756782#4 203756782#5 203756782#6 203756782#8 203756782#9 69329613#0 29987290#0 29987290#1 29987290#2 29987290#3 29987290#4 29987290#5 69329607#1 29985841#2 -29985131#3 -29985093 29984545#0 29984545#1"/>
    </vehicle>
    <vehicle id="bus10" type="bus" depart="11.93" departLane="best">
        <route edges="-61808827#2 -61808827#1 137231955 137231948#1 137231948#2 137231948#3 -477791925 -85523646#4 -85523646#2 -85523646#1 -118156054 -5364417 -13989034#2 -13989034#1 -13989034#0 -13989039#1 -13989039#0 -204876015 -13989057#3 -13989057#2 -13989057#1 -138016950#3 -138016950#2 -138016950#1 -17504008#4"/>
    </vehicle>
    <vehicle id="bus11" type="bus" depart="13.13" departLane="best">
        <route edges="80511347 9447279#1 -138136767#0 -20361913#5 -20361913#4 -20361913#2 -108987509 -108987505#0 80511356#1 292634308 129451612 -521674280 747232#0 747232#1 -747228#2 -747228#1 15135984#0 15135984#1 5364533#0 5364533#1 5364533#2 5364533#3 22635070#3 502287257#0 502287257#1 502287257#2 502287257#3 502287257#4 5312398 17504008#0 17504008#1 17504008#2 17504008#3 17504008#4 -366791128#5 -366791128#3 -366791128#2 -366791128#1 -366791128#0 -414126482#0 -368374360#0 -5364412#13 -5364412#12 -5364412#11 -5364412#10 -5364412#9 -5364412#8 -5364412#7 -5364412#6 -5364412#5 -5364412#4 5364482 -35202670#0 5364477 14207242#1 14207242#2 14207242#3 14207124#0 -5364478"/>
    </vehicle>
    <vehicle id="bus12" type="bus" depart="14.32" departLane="best">
        <route edges="-14204527#2 -14204527#1 -118611606 -1217382#1 -1217382#0 203756782#5 203756782#6 203756782#8 203756782#9 203756781 477791960#1 477791960#2 477791960#3 366528052#0 366528052#1 366528052#2 366528055#1 366528055#2 366528055#3 366528055#4 366528055#5 -366788783 366788789#0 138141918#0 -138141918#0"/>
    </vehicle>
    <vehicle id="bus13" type="bus" depart="15.51" departLane="best">
        <route edges="5312405#4 5312405#5 5312405#6 5312405#7 5312405#8 203756782#0 203756782#1 203756782#2 203756782#3 203756782#4 203756782#5 203756782#6 203756782#8 203756782#9 69329613#0 29987290#0 29987290#1 29987290#2 29987290#3 29987290#4 29987290#5 69329607#1 29985841#2 -29985131#3 -29985131#2 -29985131#1 -29985131#0 29986656#0 29986656#1 366523649#6 366523649#7 366448839#1 138017526#0 138017526#1 138017526#2 138017526#3 165996559#0 165996559#1 165996559#2 165996559#3 165996559#4 165996559#5 165996559#6 165996559#7 31328400#0 31328484#2"/>
    </vehicle>
    <vehicle id="bus14" type="bus" depart="16.71" departLane="best">
        <route edges="138141919 -138141918#0 -366788789#0 13988695 138016953#0 138016953#1 138016953#2 138016953#3 477791963 138017526#0 138017526#1 138017526#2 138017526#3 165996559#0 165996559#1 165996559#2 165996559#3 165996559#4 165996559#5 165996559#6 165996559#7 165996559#8 165996559#9 165996559#11 165996559#13 165996559#14 477791957#0 477791957#1 165996572#0 -26642615#2 -26642615#1 -26642615#0 -146344008#1 -146344008#0 -477791953 34817465#0 34817465#1 34817465#2 34817465#3 34817465#5 34817465#7 75654169"/>
    </vehicle>
    <vehicle id="bus15" type="bus" depart="17.90" departLane="best">
        <route edges="-74585097 75654207#3 75654207#4 75654207#5 75654207#6 75654207#7 75654209#0 74585112 165996563#4 477791947#0 477791947#1 477791947#2 477791947#3 477791947#4 477791947#5 477791947#7 165996554 501600594#1 501600594#2 501600594#3 501600594#4 501600594#5 501600594#6 501600594#7 501600594#8 85523624#0 85523624#1 85523624#3 85523624#4 5312389#0 5312389#1 5312390 204876015 129462269#0 129462269#1 13989189 29425840#0 29425840#1 5304636 14794461#1 14795618#2 -14007525 22635068#1 61188951 40950946#0 39630231 38863924 31312156#0 336958620 -129518914 224709345#0 224709345#1 224709345#2 -127658904 -127658897 -31346243 29312521#0 129111452#0 1217955#0 1217955#1 1217955#2 1217955#4"/>
    </vehicle>
    <vehicle id="bus16" type="bus" depart="19.09" departLane="best">
        <route edges="58197728#0 58197728#1 58197732#1 -58197693 368359400#5 38840379 5364469#0 5364469#1 5364469#2 5364469#3 368359401#0 368359401#1 -477791897#2 -477791897#1 -477791897#0 -477791900#2 -477791900#1 -477791900#0 -477791859#2 -477791859#1 -477791859#0 -20361913#10 -20361913#9 -20361913#8 -20361913#7 -20361913#6 -20361913#5 -20361913#4 -20361913#2 -108987509 -108987505#0 80511356#1 292634308 129451612 14890634#0 14890634#1 14890634#2 31404826#1 224709345#0 224709345#1 224709345#2 39861649#1 39861649#2 -55637437#1 -55637437#0 -317727542 159762888#0 159762888#1 55637430 20647689 20647714#2 14891038 165598282 29313478 138124219 178631602#0 178631602#1 178631602#2 145681856#0"/>
    </vehicle>
    <vehicle id="bus17" type="bus" depart="20.29" departLane="best">
        <route edges="69329617 69329619#1 69329619#2 -203756779 -69329618#3 -69329618#2 -69329618#1 -69329618#0 -477791853 -29660096#8 -29660096#7 -29986843#1 29986775#1 29986775#2 29985807#0 29985807#1 -29985841#2 -29985841#1 -29985841#0 366528052#2 366528055#1 366528055#2 366528055#3 -138016951#2 138016951#2"/>
    </vehicle>
    <vehicle id="bus18" type="bus" depart="21.48" departLane="best">
        <route edges="32431523#0 114395940#0 114395941 -31406616#0 2390360 204575483#1 204575483#2 29301230#0 29301230#1 29301230#2 29301230#3 29301230#4 29301230#5 -37812769#1 -37812769#0 -137231956#3 -31363693#3 -31363693#2 -31363693#1 -31363693#0 114395957#3 -117076501#5 -117076501#4 -117076501#3 -117076501#2 -117076501#1 -117076501#0 117076486 -31363586#3 -31363586#1 -31363586#0 -5312333#5 -5312333#4 -5312333#3 -5312333#2 -5312333#0 -165996559#14 -165996559#13 -165996559#11 -74585115 -75654209#7 -75654209#6 -75654209#5 -75654209#4 -75654209#3 -75654209#2 -75654209#1 74585112 -165996563#3 74585082#0 74585082#1 -117884758#3 -117884758#2 -117884758#1 -117884758#0"/>
    </vehicle>
    <vehicle id="bus19" type="bus" depart="22.67" departLane="best">
        <route edges="-366450334#0 -477791976#1 -477791976#0 29660096#0 29660096#1 29660096#2 29660096#3 29660096#4 29660096#6 -29986843#1 29986775#1 29986775#2 29985807#0 29985807#1 -29985841#2 -29985841#1 -29985841#0 366528052#2 -14207345 -13988575#1 -13988575#0 -35202670#1 -35202670#0 -477791961#1 -477791961#0 -368374365#0 -438203825"/>
    </vehicle>
    <vehicle id="bus20" type="bus" depart="23.87" departLane="best">
        <route edges="-138141921 138141921 98669439#1 98669439#2 366788789#3 366788788#1 13990182#0 13990182#1 13990182#2 13990182#3 203756780#0 203756780#1 203756780#2 203756780#3 13989743#0 13989743#1 13989743#2 13989743#3 477791912 477791945#0 477791945#2 5364417 118156054 85523646#1 85523646#2 85523646#4 477791925 42442573#0 42442573#1 42442573#2 42442573#3 61808827#0 61808827#1 61808827#2 61808827#4 61808827#5 61808827#7 -204575483#2 -204575483#1 -2390360 31406616#0 -31406616#0"/>
    </vehicle>
    <vehicle id="bus21" type="bus" depart="25.06" departLane="best">
        <route edges="-15135515#1 15135515#1 15135984#0 15135984#1 5304633#2 224709287 129518739#0 129518739#1 22635068#0 22635068#1 29425839#0 29425839#2 29425839#3 29425839#4 29425839#5 29425839#6 29425839#7 -175660899#2 -175660899#0 137231949#0 137231949#1 -85524286#2 -85524286#1 -85524286#0 28771089#0 28771089#1 28771089#2 -137231947#1 -137231947#0 137231946#0 137231946#1 137231946#2 137231946#3 137231946#4 137231946#5 137231946#6 137231946#7 -78055483#2 -78055483#1 -78055483#0 -135342446#8 -135342446#6 -135342446#5 -40325292"/>
    </vehicle>
    <vehicle id="bus22" type="bus" depart="26.25" departLane="best">
        <route edges="274277293 274277292 5312391#1 61188948#1 61188950#0 61188950#1 -13990182#3 -13990182#2 -13990182#1 -13990182#0 -477791962#1 -477791962#0 -366528055#7 -366528055#6 -366528055#5 -366528055#4 -366528055#3 -366528055#2 -366528055#1 -366528055#0 -366528052#1 -366528052#0 -477791960#3 -477791960#2 -477791960#1 -477791960#0 -203756782#9 -203756782#8 -203756782#6 -203756782#5 -203756782#4 -203756782#3 -203756782#2 -203756782#1 -203756782#0 -118611615 118611609 236672712 236672711 35389138#0 35389138#1 118631280#0 118631280#1 118631280#2 118631280#3 118631280#4 118631280#5 118631280#6 118631280#7 -69231138#1 -69231138#0"/>
    </vehicle>
    <vehicle id="bus23" type="bus" depart="27.45" departLane="best">
        <route edges="-74585054#1 85523642 -5312400#1 -5312400#0 -501600594#6 -501600594#5 -501600594#4 -501600594#3 -501600594#2 -501600594#1 -501600594#0 -477791947#7 -477791947#5 -477791947#4 -477791947#3 -477791947#2 -477791947#1 74585079 -138017526#2 -138017526#1 -138017526#0 -366448839#1 -366448839#0 -366523649#6 -29986656#1 -29986682#3 -29986682#2 -29986682#1 29986710#0 29986731 29986759#0 -29986878#3 -29986878#2 -29987570"/>
    </vehicle>
    <vehicle id="bus24" type="bus" depart="28.64" departLane="best">
        <route edges="-431896177#1 431896177#1 -74585038#5 -74585038#3 -74585038#2 -74585038#1 -74585038#0 -29660096#3 -29660096#2 -29660096#1 -29660096#0 477791976#0 477791976#1 477791976#2 366450334#1 477791972#1 366523649#1 366523649#2 366523649#3 366523649#4 366523649#5 366523649#6 366523649#7 366448839#1 -138016956#10 -138016956#9 -138016956#8 -138016956#7 -138016956#6 -138016956#4 -138016956#2 -138016956#1 -138016956#0 -61188950#1 -61188950#0 -61188948#1 -5312391#1 -5312391#0 13989057#3 204876015 129462269#0 129462269#1 13989189 29425840#0 29425840#1 5304636 14794461#1 14795618#2 -14007525 22635068#1 61188951 40950946#0 39630231 38863924 31312156#0 336958620 -129518914 224709345#0 224709345#1 224709345#2 -127658904 -127658897 -31346243 337080198#0 135350072#1 -60889236 727505#2 727508#1 727504"/>
    </vehicle>
    <vehicle id="bus25" type="bus" depart="29.83" departLane="best">
        <route edges="29655224 366448839#1 -138016956#10 -138016956#9 -138016956#8 -138016956#7 -138016956#6 -138016956#4 -138016956#2 -138016956#1 -138016956#0 -61188950#1 -61188950#0 -61188948#1 -5312391#1 -5312391#0 13989057#3 204876015 129462269#0 129462269#1 13989189 29425840#0 29425840#1 5304636 14794461#1 14795618#2 -14007525 22635068#1 61188951 40950946#0 40950946#1 138397654#1 138397654#2 138397654#3 138397654#4"/>
    </vehicle>
    <vehicle id="bus26" type="bus" depart="31.03" departLane="best">
        <route edges="-29987687#2 -29987687#1 29987690 29987648#1 29987648#2 29987668#0 138016953#2 138016953#3 477791963 138017526#0 138017526#1 138017526#2 -74585079 477791947#1 477791947#2 477791947#3 477791947#4 477791947#5 477791947#7 -477791948#2 31328424"/>
    </vehicle>
    <vehicle id="bus27" type="bus" depart="32.22" departLane="best">
        <route edges="-29987290#1 -29987290#0 -69329613#0 -203756782#9 -203756782#8 -203756782#6 -203756782#5 -203756782#4 -203756782#3 -203756782#2 -203756782#1 -203756782#0 -5312405#8 -5312405#7 -5312405#6 -5312405#5 -5312405#4 -5312405#3 -69329626 -69329628#0"/>
    </vehicle>
    <vehicle id="bus28" type="bus" depart="33.41" departLane="best">
        <route edges="9447279#0 9447279#1 -138136767#0 -20361913#5 -20361913#4 -20361913#2 -108987509 -108987505#0 80511356#1 292634308 129451612 -521674280 747232#0 747232#1 747232#2 747232#4 747232#5 747232#7 129518739#0 129518739#1 22635068#0 22635068#1 29425839#0 29425839#2 29425839#3 29425839#4 29425839#5 29425839#6 29425839#7 -175660899#2 -175660899#0 137231949#0 137231949#1 -85523646#4 -85523646#2 -85523646#1 -118156054 -5364417 -477791945#2 -477791945#0 -477791912 -13989743#3 -13989743#2 -13989743#1 -13989743#0 -85523624#4 -85523624#3 -85523624#1 -85523624#0 -501600594#8 -501600594#7 -501600594#6 -501600594#5 -501600594#4 -501600594#3 -501600594#2 -501600594#1 -501600594#0 -477791947#7 -477791947#5 -477791947#4 -477791947#3 -477791947#2 -477791947#1 -477791947#0 165996559#0 165996559#1 165996559#2 165996559#3 165996559#4"/>
    </vehicle>
    <vehicle id="bus29" type="bus" depart="34.61" departLane="best">
        <route edges="13989039#0 13989039#1 13989034#0 13989034#1 13989034#2 5364417 118156054 85523646#1 85523646#2 85523646#4 477791925 42442573#0 42442573#1 42442573#2 42442573#3 61808827#0 61808827#1 61808827#2 61808827#4 61808827#5 61808827#7 -204575483#2 -204575483#1 174920357#0 174920357#1 -109021467#3 -109021467#2 -109021467#1 -109021467#0 145681856#0 29301228#0"/>
    </vehicle>
    <vehicle id="bus30" type="bus" depart="35.80" departLane="best">
        <route edges="61332008 -368359402#0 368359401#1 -477791897#2 -477791897#1 -477791897#0 -477791900#2 -477791900#1 -477791900#0 -477791859#2 -477791859#1 -477791859#0 -20361913#10 -20361913#9 -20361913#8 -20361913#7 -20361913#6 -20361913#5 -20361913#4 -20361913#2 -108987509 -108987505#0 80511356#1 292634308 129451612 -521674280 747232#0 747232#1 747232#2 747232#4 747232#5 747232#7 129518739#0 129518739#1 22635068#0 22635068#1 29425839#0 29425839#2 29425839#3 29425839#4 29425839#5 29425839#6 29425839#7 -175660899#2 -175660899#0 137231949#0 137231949#1 -85524286#2 -85524286#1 -85524286#0 -338707030#6 -338707030#5 -338707030#4 -338707030#2 -338707030#1 -338707030#0 338707030#0"/>
    </vehicle>
    <vehicle id="bus31" type="bus" depart="36.99" departLane="best">
        <route edges="-366523649#4 366523649#4 366523649#5 366523649#6 366523649#7 366448839#1 138017526#0 138017526#1 138017526#2 138017526#3 165996559#0 165996559#1 165996559#2 165996559#3 165996559#4 165996559#5 165996559#6 165996559#7 165996559#8 165996559#9 165996559#11 165996559#13 165996559#14 5312333#0 5312333#2 5312333#3 5312333#4 5312333#5 31363586#0 31363586#1 31363586#3 117076483 117076501#0 -117076501#0"/>
    </vehicle>
    <vehicle id="bus32" type="bus" depart="38.19" departLane="best">
        <route edges="-5364419#6 -5364419#5 75654200#1 -69265457#4 -69265457#3 -69265457#2 -69265457#1 -69265457#0 -5312331 -477791912 -118930373 -13989039#1 -13989039#0 129462269#0 129462269#1 13989189 -39861491 5304634#0 5304634#1 5304631#0 747228#0 747228#1 747228#2 -747232#1 -747232#0 521674280 129452581 -292634308 -80511356#1 108987505#0 108987509 20361913#2 20361913#4 20361913#5 20361913#6 20361913#7 20361913#8 20361913#9 20361913#10 477791859#0 477791859#1 477791859#2 477791900#0 477791900#1 477791900#2 477791897#0 477791897#1 477791897#2 414126479 -368359401#0 -5364469#3 -5364469#2 -5364469#1 -5364469#0 41741620 -5364468#0 -368359400#5 -368359400#4 -368359400#3 -368359400#2 -368359400#0"/>
    </vehicle>
    <vehicle id="bus33" type="bus" depart="39.38" departLane="best">
        <route edges="-32431687#1 32431687#1 32431687#2 -31406616#4 -31406616#3 -31406616#2 -31406616#1 -31406616#0 2390360 204575483#1 204575483#2 29301230#0 29301230#1 29301230#2 29301230#3 29301230#4 29301230#5 -37812769#1 -37812769#0 -137231956#3 -31363693#3 -31363693#2 -31363693#1 -31363693#0 114395957#3 -117076501#5 -117076501#4 -117076501#3 -117076501#2 -117076501#1 -117076501#0 117076486 -31363586#3 -31363586#1 -31363586#0 -5312333#5 -5312333#4 -5312333#3 -5312333#2 -5312333#0 -165996559#14 -165996559#13 -165996559#11 -74585115 -75654209#7 -75654209#6 -75654209#5 -75654209#4 -75654209#3 -75654209#2 -75654209#1 74585112 -165996563#3 74585082#0 74585082#1 74585082#2 74585082#3 74585082#4 74585082#5 477791969#0 477791969#1 -366450334#1 -366450334#0 -477791976#1 -477791976#0 -346637730#5 -346637730#4 -346637730#3 -346637730#2 -346637730#1 -74585038#22 -74585038#21 -74585038#19 -74585038#18 -74585038#17 -74585038#15 -74585038#14 -74585038#13 74585038#13"/>
    </vehicle>
    <vehicle id="bus34" type="bus" depart="40.57" departLane="best">
        <route edges="727171#3 727176 434298721 727180 127658900 159762888#0 159762888#1 55637430 20647689 20647714#2 14891038 165598282 29313478 138124219 178631602#0 138310040#0 138310040#1 -138124221#6 -138124221#5 -138124221#4 -138124221#3 -138124221#2 -138124221#0 -138125464#1 145721106 224709285#0 224709285#1 29427355#0 29427355#1 29427355#2 292631585 224709286 13989809#1 477791910#0 477791910#1 477791910#2 22634594 -129462269#1 -129462269#0 -204876015 -13989057#3 5312391#0 5312391#1 61188948#1 61188950#0 61188950#1 -13990182#3 -13990182#2 -13990182#1 -13990182#0 -477791962#1 52066375#0 52066375#1 -52066377#0"/>
    </vehicle>
    <vehicle id="bus35" type="bus" depart="41.77" departLane="best">
        <route edges="29985940#1 29985940#2 -29984545#0 29985093 29985131#3 -29985807#1 -29985807#0 -29986775#2 -29986775#1 29986843#1 -29660096#6 -29660096#4 -29660096#3 -29660096#2 -29660096#1 -29660096#0 -5312403#5 -5312403#4 -74584976"/>
    </vehicle>
    <vehicle id="bus36" type="bus" depart="42.96" departLane="best">
        <route edges="747232#0 747232#1 -747228#2 -747228#1 15135984#0 15135984#1 5364533#0 5364533#1 5364533#2 5364533#3 22635070#3 502287257#0 502287257#1 502287257#2 502287257#3 502287257#4 5312398 17504008#0 17504008#1 17504008#2 17504008#3 17504008#4 -366791128#5 -366791128#3 -366791128#2 135230294#0 135230294#1 138141922#0 98669439#0 -138141921 -52066372#1 -52066372#0 -366788789#1 -366788789#0 13988695 -366528055#5 -366528055#4 -366528055#3 -366528055#2 -366528055#1 -366528055#0 -366528052#1 -366528052#0 -477791960#3 -477791960#2 -477791960#1 -477791960#0 -203756782#9 -203756782#8 -203756782#6 -203756782#5 -203756782#4 -203756782#3 -203756782#2 -203756782#1 -203756782#0 -5312405#8 -5312405#7 -5312405#6 -69329628#2 51012853 -138964140#2 -138964140#1 -75654228"/>
    </vehicle>
    <vehicle id="bus37" type="bus" depart="44.15" departLane="best">
        <route edges="-41741617 -41741616#1 -41741613#1 -41741613#0 368359400#2 368359400#3 368359400#4 368359400#5 5364468#0 5364468#1 5364468#2 5364468#3 5364468#4 5364468#5 5364468#6 5364468#7 477791908 -477791907#4 -477791907#3 -477791907#2 -477791907#1 5364472#0 5364472#1 17187928#1 17187928#2 17187928#5 -22380352 -204614031 204614033 33708056#1 33708057#0 33708057#2 33708057#3 33708057#4 33708057#5 33708057#6 33708057#7 35202667#0 35202667#1 5364484#0 5364484#1 33696907 33696903 -33696904#0"/>
    </vehicle>
    <vehicle id="bus38" type="bus" depart="45.35" departLane="best">
        <route edges="165618647#0 165618647#1 165618647#2 165618647#3 165618647#4 165618647#5 165618647#6 29313766 26584994 -477791928 -109021467#3 -109021467#2 -109021467#1 -109021467#0 145681856#0 29301228#0 29301228#1 29301228#2 29301228#3 29301228#4 138124221#6 107112428#0 107112428#1 178631602#0 -107185799#2 98387820#0 98387820#1 138125080#1 138125080#3 138125080#5 138125080#6 138125080#7 14891038 29427155 38375347 182814158 38375345#0 38375345#1 38375345#2 38375345#3 38375345#4 38375345#5 38375345#6 38375345#7 55637437#0 55637437#1"/>
    </vehicle>
    <vehicle id="bus39" type="bus" depart="46.54" departLane="best">
        <route edges="-75654201#1 -5364419#2 -5364419#1 -5364419#0 -85523624#3 -85523624#1 -85523624#0 -501600594#8 -501600594#7 -501600594#6 -501600594#5 -501600594#4 -501600594#3 -501600594#2 -501600594#1 -501600594#0 -477791947#7 -46855652#1 -31328473"/>
    </vehicle>
    <vehicle id="bus40" type="bus" depart="47.73" departLane="best">
        <route edges="98387844 -74010809#0 -114395935#1 74010808#0 74010808#1 74010808#2 98387829#1 -138120046#1 -138120046#0 15133374 107254387 138120048#0 138120048#2 159762882 5312342 337008054#0 337008054#1 337008054#2 727153 55637437#0 55637437#1 -39861649#2 -39861649#1 -224709345#2 -224709345#1 -224709345#0 -31404826#1 -14890634#2 -14890634#1 -14890634#0 129452581 -292634308 -5364535#1 -5364535#0 -751049#13 -751049#12 -751049#11 -751049#9 -751049#8 -751049#6 -751049#5 -751049#4 -751049#3 -751049#2 -751049#1 14336190#0 14336190#1 14336190#2 14336190#3 -368359403#1 129449085 108987506#0"/>
    </vehicle>
    <vehicle id="bus41" type="bus" depart="48.92" departLane="best">
        <route edges="-13989743#3 -13989743#2 -13989743#1 -13989743#0 -85523624#4 -85523624#3 -85523624#1 -85523624#0 -501600594#8 -501600594#7 -501600594#6 -501600594#5 -501600594#4 -501600594#3 -501600594#2 -501600594#1 -501600594#0 -477791948#2 -477791948#1 -477791948#0 -31328400#2 31406434 117884763#0 31406461 -117884763#1"/>
    </vehicle>
    <vehicle id="bus42" type="bus" depart="50.12" departLane="best">
        <route edges="-165996559#7 165996559#7 165996559#8 165996559#9 165996559#11 165996559#13 165996559#14 5312333#0 5312333#2 5312333#3 5312333#4 5312333#5 31363586#0 31363586#1 31363586#3 117076483 117076501#0 117076501#1 117076501#2 117076501#3 117076501#4 117076501#5 -114395957#3 31363693#0 31363693#1 31363693#2 31363693#3 137231956#3 37812769#0 37812769#1 -29301230#5 -29301230#4 -29301230#3 -29301230#2 -29301230#1 -29301230#0 -204575483#2 -204575483#1 174920357#0 174920357#1 -109021467#3 -109021467#2 -109021467#1 -109021467#0 145681856#0 29301228#0 29301228#1 29301228#2 29301228#3 29301228#4 138124221#6 107112428#0 107112428#1 178631602#0 -107185799#2 -107185799#1 -107185799#0 107254099 -138120046#1 -138120046#0 14891114#0 14891114#1 14891114#2"/>
    </vehicle>
    <vehicle id="bus43" type="bus" depart="51.31" departLane="best">
        <route edges="52066381#0 -61188950#0 -5312388#1 -5312388#0 -138016950#3 -138016950#2 -138016950#1 -366791128#5 -366791128#3 -366791128#2 -366791128#1 -366791128#0 -414126482#0 -368374360#0 -5364412#13 -5364412#12 -5364412#11 -5364412#10 -5364412#9 -5364412#8 -5364412#7 -5364412#6 -5364412#5 -5364412#4 -5364412#2 -5364412#1 -5364409#2 74816879 -74816878#0"/>
    </vehicle>
    <vehicle id="bus44" type="bus" depart="52.50" departLane="best">
        <route edges="-138016960#2 -138016950#2 -138016950#1 -366791128#5 -366791128#3 -366791128#2 -366791128#1 -366791128#0 -414126482#0 -368374360#0 -22380251#2 -22380251#1 -22380251#0 -108997117 -138141915#1 -138141915#0 477791909#0 477791909#1 283487903#0 283487903#1 -22380352 -204614031 -69600627#14 -69600627#13 -69600627#11 -69600627#10 -69600627#9 -69600627#8 -69600627#7 -69600627#6 -69600627#5 -69600627#4 -69600627#3 -69600627#2 -69600627#1"/>
    </vehicle>
    <vehicle id="bus45" type="bus" depart="53.70" departLane="best">
        <route edges="98387831#0 98387831#1 98387831#3 109021467#0 109021467#1 109021467#2 109021467#3 477791928 2390360 204575483#1 204575483#2 29301230#0 29301230#1 29301230#2 29301230#3 29301230#4 29301230#5 -37812769#1 -37812769#0 -137231956#3 -31363693#3 -31363693#2 -31363693#1 -31363693#0 114395957#3 -117076501#5 -117076501#4 -117076501#3 -117076501#2 -117076501#1 117076501#1"/>
    </vehicle>
    <vehicle id="bus46" type="bus" depart="54.89" departLane="best">