<?xml version="1.0" encoding="UTF-8"?>
<!-- generated on 2017-11-02 19:16:09.497041 by $Id: route2trips.py 26301 2017-10-02 20:48:38Z behrisch $ via randomTrips.py
  options: 
-->
<routes xmlns:xsi="http://www.w3.org/2001/XMLSchema-instance" xsi:noNamespaceSchemaLocation="http://sumo.dlr.de/xsd/routes_file.xsd">
    <vType id="passenger" speedFactor="normc(1.00,0.10,0.20,2.00)" vClass="passenger">
    </vType>
    <trip id="veh0" depart="0.00" departLane="best" from="29986000" to="-117076456#0" type="passenger"/>
    <trip id="veh1" depart="0.60" departLane="best" from="-477791858#2" to="-31327366#0" type="passenger"/>
    <trip id="veh2" depart="1.19" departLane="best" from="41741616#0" to="208462397" type="passenger"/>
    <trip id="veh3" depart="1.79" departLane="best" from="74585114#0" to="-138016950#2" type="passenger"/>
    <trip id="veh4" depart="2.39" departLane="best" from="108987499" to="-117076469#0" type="passenger"/>
    <trip id="veh5" depart="2.99" departLane="best" from="-35202670#5" to="-85523633" type="passenger"/>
    <trip id="veh6" depart="3.58" departLane="best" from="-117076507#1" to="-29986000" type="passenger"/>
    <trip id="veh7" depart="4.18" departLane="best" from="29986883" to="110781516#0" type="passenger"/>
    <trip id="veh8" depart="4.78" departLane="best" from="-366528052#1" to="135340274#0" type="passenger"/>
    <trip id="veh11" depart="6.57" departLane="best" from="-64526975#1" to="-173776672" type="passenger"/>
    <trip id="veh12" depart="7.16" departLane="best" from="81157523" to="-5364468#0" type="passenger"/>
    <trip id="veh13" depart="7.76" departLane="best" from="-14856675#2" to="-138136466" type="passenger"/>
    <trip id="veh14" depart="8.36" departLane="best" from="69600627#10" to="138016960#2" type="passenger"/>
    <trip id="veh16" depart="9.55" departLane="best" from="138289831#0" to="75589354" type="passenger"/>
    <trip id="veh17" depart="10.15" departLane="best" from="-74816878#1" to="114395935#5" type="passenger"/>
    <trip id="veh18" depart="10.75" departLane="best" from="69228022#0" to="138137986#2" type="passenger"/>
    <trip id="veh19" depart="11.34" departLane="best" from="727510#0" to="1217150#3" type="passenger"/>
    <trip id="veh20" depart="11.94" departLane="best" from="338707030#6" to="-117076523" type="passenger"/>
    <trip id="veh21" depart="12.54" departLane="best" from="-37812769#1" to="-41741614#0" type="passenger"/>
    <trip id="veh22" depart="13.13" departLane="best" from="-138231125#1" to="-31405002#0" type="passenger"/>
    <trip id="veh24" depart="14.33" departLane="best" from="29985182#0" to="-61755067#0" type="passenger"/>
    <trip id="veh25" depart="14.93" departLane="best" from="-74585093" to="-29986883" type="passenger"/>
    <trip id="veh26" depart="15.52" departLane="best" from="-432082621" to="69329629#3" type="passenger"/>
    <trip id="veh27" depart="16.12" departLane="best" from="29986880" to="138124221#3" type="passenger"/>
    <trip id="veh28" depart="16.72" departLane="best" from="-31363733#1" to="307961114" type="passenger"/>
    <trip id="veh29" depart="17.31" departLane="best" from="-31326983#5" to="-69329603#0" type="passenger"/>
    <trip id="veh30" depart="17.91" departLane="best" from="9448010" to="14856675#2" type="passenger"/>
    <trip id="veh31" depart="18.51" departLane="best" from="146344008#0" to="22635043#0" type="passenger"/>
    <trip id="veh32" depart="19.10" departLane="best" from="69329623#0" to="33682822#1" type="passenger"/>
    <trip id="veh33" depart="19.70" departLane="best" from="-393032356" to="-117076470" type="passenger"/>
    <trip id="veh34" depart="20.30" departLane="best" from="-5364480#1" to="-35202670#5" type="passenger"/>
    <trip id="veh35" depart="20.90" departLane="best" from="-33696908" to="727509#1" type="passenger"/>
    <trip id="veh36" depart="21.49" departLane="best" from="74585065#0" to="-51012848#0" type="passenger"/>
    <trip id="veh37" depart="22.09" departLane="best" from="29987198#1" to="-727181" type="passenger"/>
    <trip id="veh38" depart="22.69" departLane="best" from="75654187" to="-75654216" type="passenger"/>
    <trip id="veh39" depart="23.28" departLane="best" from="-432074679" to="-32431649#0" type="passenger"/>
    <trip id="veh40" depart="23.88" departLane="best" from="15070662#1" to="-34817465#0" type="passenger"/>
    <trip id="veh41" depart="24.48" departLane="best" from="173776672" to="5364484#0" type="passenger"/>
    <trip id="veh42" depart="25.07" departLane="best" from="-81026648" to="-29987687#1" type="passenger"/>
    <trip id="veh43" depart="25.67" departLane="best" from="98387844" to="-85523648" type="passenger"/>
    <trip id="veh44" depart="26.27" departLane="best" from="-14795618#0" to="-117076530" type="passenger"/>
    <trip id="veh45" depart="26.87" departLane="best" from="-174920319" to="138397654#15" type="passenger"/>
    <trip id="veh46" depart="27.46" departLane="best" from="5364457#0" to="-74585095#0" type="passenger"/>
    <trip id="veh47" depart="28.06" departLane="best" from="-138016963#1" to="-69329619#0" type="passenger"/>
    <trip id="veh48" depart="28.66" departLane="best" from="98387831#0" to="104005051" type="passenger"/>
    <trip id="veh49" depart="29.25" departLane="best" from="85523631" to="477791976#1" type="passenger"/>
    <trip id="veh50" depart="29.85" departLane="best" from="-109012683#2" to="29987350#1" type="passenger"/>
    <trip id="veh51" depart="30.45" departLane="best" from="31406444" to="108987505#1" type="passenger"/>
    <trip id="veh52" depart="31.04" departLane="best" from="-432082621" to="14858798" type="passenger"/>
    <trip id="veh53" depart="31.64" departLane="best" from="-174920369#1" to="-74816894#0" type="passenger"/>
    <trip id="veh54" depart="32.24" departLane="best" from="117076501#3" to="74585070#1" type="passenger"/>
    <trip id="veh55" depart="32.84" departLane="best" from="74585065#0" to="-34817465#7" type="passenger"/>
    <trip id="veh56" depart="33.43" departLane="best" from="135350072#0" to="-263554593" type="passenger"/>
    <trip id="veh57" depart="34.03" departLane="best" from="75654180" to="521674279" type="passenger"/>
    <trip id="veh58" depart="34.63" departLane="best" from="-5312341" to="14798377#2" type="passenger"/>
    <trip id="veh59" depart="35.22" departLane="best" from="22634728#0" to="-170239185#0" type="passenger"/>
    <trip id="veh60" depart="35.82" departLane="best" from="501600594#8" to="108987506#2" type="passenger"/>
    <trip id="veh61" depart="36.42" departLane="best" from="5312334#7" to="104005051" type="passenger"/>
    <trip id="veh62" depart="37.02" departLane="best" from="-104004845" to="-5312333#4" type="passenger"/>
    <trip id="veh63" depart="37.61" departLane="best" from="-114395948" to="69329618#1" type="passenger"/>
    <trip id="veh64" depart="38.21" departLane="best" from="74585066" to="41741614#1" type="passenger"/>
    <trip id="veh65" depart="38.81" departLane="best" from="-5364413" to="-117884765" type="passenger"/>
    <trip id="veh66" depart="39.40" departLane="best" from="74585066" to="74585038#10" type="passenger"/>
    <trip id="veh67" depart="40.00" departLane="best" from="-13989743#2" to="-81157516" type="passenger"/>
    <trip id="veh68" depart="40.60" departLane="best" from="-138136762#1" to="31406569" type="passenger"/>
    <trip id="veh70" depart="41.79" departLane="best" from="118611609" to="110781526#1" type="passenger"/>
    <trip id="veh71" depart="42.39" departLane="best" from="-432074679" to="5304633#2" type="passenger"/>
    <trip id="veh72" depart="42.99" departLane="best" from="108987506#1" to="-29986916" type="passenger"/>
    <trip id="veh73" depart="43.58" departLane="best" from="138290303" to="31312126" type="passenger"/>
    <trip id="veh74" depart="44.18" departLane="best" from="-32431523#2" to="-477791970" type="passenger"/>
    <trip id="veh75" depart="44.78" departLane="best" from="98387829#1" to="159762888#1" type="passenger"/>
    <trip id="veh76" depart="45.37" departLane="best" from="114395957#0" to="-89230768#0" type="passenger"/>
    <trip id="veh77" depart="45.97" departLane="best" from="-208463455" to="-31327402" type="passenger"/>
    <trip id="veh78" depart="46.57" departLane="best" from="-61842655#1" to="129518739#1" type="passenger"/>
    <trip id="veh79" depart="47.16" departLane="best" from="-39631152" to="-310217826#1" type="passenger"/>
    <trip id="veh80" depart="47.76" departLane="best" from="-138136767#1" to="13989057#3" type="passenger"/>
    <trip id="veh81" depart="48.36" departLane="best" from="-393032356" to="55637437#1" type="passenger"/>
    <trip id="veh82" depart="48.96" departLane="best" from="727508#0" to="-118930372" type="passenger"/>
    <trip id="veh83" depart="49.55" departLane="best" from="-41741599" to="192516749" type="passenger"/>
    <trip id="veh84" depart="50.15" departLane="best" from="-337845006" to="-14798394" type="passenger"/>
    <trip id="veh85" depart="50.75" departLane="best" from="75654222" to="118611610#1" type="passenger"/>
    <trip id="veh86" depart="51.34" departLane="best" from="117983125" to="33708057#3" type="passenger"/>
    <trip id="veh88" depart="52.54" departLane="best" from="-152028320#1" to="-74816884#1" type="passenger"/>
    <trip id="veh89" depart="53.13" departLane="best" from="108987510" to="-75654223" type="passenger"/>
    <trip id="veh90" depart="53.73" departLane="best" from="39020727#0" to="203756782#5" type="passenger"/>
    <trip id="veh91" depart="54.33" departLane="best" from="89230768#0" to="-138137985#5" type="passenger"/>
    <trip id="veh92" depart="54.93" departLane="best" from="-85523646#2" to="-5364478" type="passenger"/>
    <trip id="veh93" depart="55.52" departLane="best" from="727510#0" to="-32431663" type="passenger"/>
    <trip id="veh94" depart="56.12" departLane="best" from="108987499" to="-374366365#1" type="passenger"/>
    <trip id="veh95" depart="56.72" departLane="best" from="-41741608" to="64526975#1" type="passenger"/>
    <trip id="veh96" depart="57.31" departLane="best" from="13989743#3" to="-117167172" type="passenger"/>
    <trip id="veh97" depart="57.91" departLane="best" from="98392667#2" to="41741616#3" type="passenger"/>
    <trip id="veh98" depart="58.51" departLane="best" from="85523627" to="69265457#9" type="passenger"/>
    <trip id="veh99" depart="59.10" departLane="best" from="69600627#6" to="-203756780#1" type="passenger"/>
    <trip id="veh100" depart="59.70" departLane="best" from="119319696" to="-29987208#0" type="passenger"/>
    <trip id="veh101" depart="60.30" departLane="best" from="-81157532" to="-117983104#1" type="passenger"/>
    <trip id="veh102" depart="60.90" departLane="best" from="-74816883" to="80343852" type="passenger"/>
    <trip id="veh103" depart="61.49" departLane="best" from="-432075390" to="33708056#1" type="passenger"/>
    <trip id="veh104" depart="62.09" departLane="best" from="117076507#0" to="-74585101#0" type="passenger"/>
    <trip id="veh105" depart="62.69" departLane="best" from="81157523" to="96385706#1" type="passenger"/>
    <trip id="veh106" depart="63.28" departLane="best" from="145681427" to="29987295#1" type="passenger"/>
    <trip id="veh107" depart="63.88" departLane="best" from="-29987431#2" to="-438461682" type="passenger"/>
    <trip id="veh108" depart="64.48" departLane="best" from="85523627" to="1217382#2" type="passenger"/>
    <trip id="veh109" depart="65.07" departLane="best" from="138290308" to="31405169#1" type="passenger"/>
    <trip id="veh110" depart="65.67" departLane="best" from="-137231946#0" to="129027252#1" type="passenger"/>
    <trip id="veh111" depart="66.27" departLane="best" from="137231946#0" to="477791900#1" type="passenger"/>
    <trip id="veh112" depart="66.87" departLane="best" from="-29987668#0" to="74585118#2" type="passenger"/>
    <trip id="veh113" depart="67.46" departLane="best" from="-138231125#4" to="-274277293" type="passenger"/>
    <trip id="veh114" depart="68.06" departLane="best" from="187804144#0" to="20644837" type="passenger"/>
    <trip id="veh115" depart="68.66" departLane="best" from="-41728144" to="-138290305" type="passenger"/>
    <trip id="veh116" depart="69.25" departLane="best" from="74585101#0" to="-32431649#0" type="passenger"/>
    <trip id="veh117" depart="69.85" departLane="best" from="187804144#0" to="138139801#2" type="passenger"/>
    <trip id="veh118" depart="70.45" departLane="best" from="106107145#3" to="129027252#1" type="passenger"/>
    <trip id="veh119" depart="71.04" departLane="best" from="138139801#3" to="69329627#1" type="passenger"/>
    <trip id="veh120" depart="71.64" departLane="best" from="-32698091" to="29987208#1" type="passenger"/>
    <trip id="veh121" depart="72.24" departLane="best" from="-41741599" to="-727181" type="passenger"/>
    <trip id="veh122" depart="72.84" departLane="best" from="31359976#0" to="-477599183#0" type="passenger"/>
    <trip id="veh123" depart="73.43" departLane="best" from="-5364480#1" to="31406444" type="passenger"/>
    <trip id="veh124" depart="74.03" departLane="best" from="-138137985#1" to="-75654209#9" type="passenger"/>
    <trip id="veh125" depart="74.63" departLane="best" from="98392667#0" to="96385706#1" type="passenger"/>
    <trip id="veh126" depart="75.22" departLane="best" from="-138137986#0" to="-29987188" type="passenger"/>
    <trip id="veh127" depart="75.82" departLane="best" from="-432075390" to="69329624#2" type="passenger"/>
    <trip id="veh128" depart="76.42" departLane="best" from="74585073" to="5312389#1" type="passenger"/>
    <trip id="veh129" depart="77.02" departLane="best" from="-74585087" to="-173920476#1" type="passenger"/>
    <trip id="veh130" depart="77.61" departLane="best" from="69323538" to="29985093" type="passenger"/>
    <trip id="veh131" depart="78.21" departLane="best" from="29987188" to="-106107075#0" type="passenger"/>
    <trip id="veh132" depart="78.81" departLane="best" from="60605022" to="-477599183#0" type="passenger"/>
    <trip id="veh133" depart="79.40" departLane="best" from="31326955" to="69600627#9" type="passenger"/>
    <trip id="veh134" depart="80.00" departLane="best" from="-29655224" to="-138290301#0" type="passenger"/>
    <trip id="veh135" depart="80.60" departLane="best" from="-170239185#1" to="114395957#0" type="passenger"/>
    <trip id="veh136" depart="81.19" departLane="best" from="-46933342" to="138017447#2" type="passenger"/>
    <trip id="veh137" depart="81.79" departLane="best" from="367573430#1" to="-29986731" type="passenger"/>
    <trip id="veh138" depart="82.39" departLane="best" from="298277925" to="-34954646" type="passenger"/>
    <trip id="veh139" depart="82.99" departLane="best" from="120548960" to="55637437#1" type="passenger"/>
    <trip id="veh140" depart="83.58" departLane="best" from="69600627#0" to="-138017526#2" type="passenger"/>
    <trip id="veh141" depart="84.18" departLane="best" from="108987510" to="-368374359" type="passenger"/>
    <trip id="veh142" depart="84.78" departLane="best" from="-104987298#2" to="32431523#2" type="passenger"/>
    <trip id="veh143" depart="85.37" departLane="best" from="29985881#0" to="-346637730#0" type="passenger"/>
    <trip id="veh144" depart="85.97" departLane="best" from="426438140#0" to="114395935#5" type="passenger"/>
    <trip id="veh145" depart="86.57" departLane="best" from="110781524" to="-107185799#0" type="passenger"/>
    <trip id="veh146" depart="87.16" departLane="best" from="-138139801#9" to="5312438" type="passenger"/>
    <trip id="veh147" depart="87.76" departLane="best" from="748206#0" to="110781516#1" type="passenger"/>
    <trip id="veh148" depart="88.36" departLane="best" from="69323539" to="127658910" type="passenger"/>
    <trip id="veh149" depart="88.96" departLane="best" from="-29987111" to="-139904133" type="passenger"/>
    <trip id="veh150" depart="89.55" departLane="best" from="-5364413" to="5364535#0" type="passenger"/>
    <trip id="veh151" depart="90.15" departLane="best" from="5364478" to="477791976#1" type="passenger"/>
    <trip id="veh152" depart="90.75" departLane="best" from="74816885" to="-29986909" type="passenger"/>
    <trip id="veh153" depart="91.34" departLane="best" from="-41741607#1" to="-138141919" type="passenger"/>
    <trip id="veh154" depart="91.94" departLane="best" from="5312391#1" to="5317242" type="passenger"/>
    <trip id="veh155" depart="92.54" departLane="best" from="-96385706#1" to="138139938#4" type="passenger"/>
    <trip id="veh157" depart="93.73" departLane="best" from="74010808#1" to="75654196#1" type="passenger"/>
    <trip id="veh159" depart="94.93" departLane="best" from="-117076501#0" to="31359928" type="passenger"/>
    <trip id="veh161" depart="96.12" departLane="best" from="58197724#0" to="502287257#1" type="passenger"/>
    <trip id="veh163" depart="97.31" departLane="best" from="5364412#12" to="-138253602" type="passenger"/>
    <trip id="veh164" depart="97.91" departLane="best" from="74585053" to="477791957#1" type="passenger"/>
    <trip id="veh165" depart="98.51" departLane="best" from="-366788789#2" to="41741601#1" type="passenger"/>
    <trip id="veh166" depart="99.10" departLane="best" from="117076523" to="-477791935" type="passenger"/>
    <trip id="veh167" depart="99.70" departLane="best" from="5364478" to="-31359976#0" type="passenger"/>
    <trip id="veh168" depart="100.30" departLane="best" from="-117076497#1" to="-29712350#0" type="passenger"/>
    <trip id="veh170" depart="101.49" departLane="best" from="85523623" to="-374366365#1" type="passenger"/>
    <trip id="veh171" depart="102.09" departLane="best" from="29986503" to="-74010805#0" type="passenger"/>
    <trip id="veh172" depart="102.69" departLane="best" from="86550036" to="107557649#1" type="passenger"/>
    <trip id="veh173" depart="103.28" departLane="best" from="75654226" to="-138290301#0" type="passenger"/>
    <trip id="veh174" depart="103.88" departLane="best" from="85523631" to="-263554593" type="passenger"/>
    <trip id="veh175" depart="104.48" departLane="best" from="85523610" to="-34954647#0" type="passenger"/>
    <trip id="veh176" depart="105.07" departLane="best" from="-17187928#5" to="-74816894#0" type="passenger"/>
    <trip id="veh177" depart="105.67" departLane="best" from="38867880" to="-501600594#8" type="passenger"/>
    <trip id="veh178" depart="106.27" departLane="best" from="224709285#1" to="-85523670#2" type="passenger"/>
    <trip id="veh179" depart="106.87" departLane="best" from="-75654168#0" to="1217150#10" type="passenger"/>
    <trip id="veh180" depart="107.46" departLane="best" from="-41741612#1" to="29986656#0" type="passenger"/>
    <trip id="veh181" depart="108.06" departLane="best" from="-104005051" to="69265457#2" type="passenger"/>
    <trip id="veh182" depart="108.66" departLane="best" from="138289835" to="29987349#3" type="passenger"/>
    <trip id="veh183" depart="109.25" departLane="best" from="426438140#3" to="20361994" type="passenger"/>
    <trip id="veh184" depart="109.85" departLane="best" from="-74585062#1" to="-118724181" type="passenger"/>
    <trip id="veh185" depart="110.45" departLane="best" from="31327151#0" to="-5312405#4" type="passenger"/>
    <trip id="veh186" depart="111.05" departLane="best" from="-5364475" to="46933340" type="passenger"/>
    <trip id="veh187" depart="111.64" departLane="best" from="368359400#5" to="-477791853" type="passenger"/>
    <trip id="veh188" depart="112.24" departLane="best" from="-5364419#5" to="-74585054#0" type="passenger"/>
    <trip id="veh189" depart="112.84" departLane="best" from="-85523624#4" to="-434367588" type="passenger"/>
    <trip id="veh190" depart="113.43" departLane="best" from="-26642615#2" to="-74585090#1" type="passenger"/>
    <trip id="veh191" depart="114.03" departLane="best" from="75654227" to="208463455" type="passenger"/>
    <trip id="veh192" depart="114.63" departLane="best" from="74816894#0" to="138136767#1" type="passenger"/>
    <trip id="veh193" depart="115.22" departLane="best" from="-5312403#0" to="110781521#0" type="passenger"/>
    <trip id="veh194" depart="115.82" departLane="best" from="-104004845" to="-41741605#0" type="passenger"/>
    <trip id="veh196" depart="117.02" departLane="best" from="29987188" to="-75654221#0" type="passenger"/>
    <trip id="veh197" depart="117.61" departLane="best" from="117076457#1" to="-29987208#0" type="passenger"/>
    <trip id="veh198" depart="118.21" departLane="best" from="118156054" to="5364548" type="passenger"/>
    <trip id="veh199" depart="118.81" departLane="best" from="5364478" to="-206582209#0" type="passenger"/>
    <trip id="veh200" depart="119.40" departLane="best" from="-13989039#1" to="-87427946" type="passenger"/>
    <trip id="veh201" depart="120.00" departLane="best" from="29660096#3" to="-5364418#1" type="passenger"/>
    <trip id="veh202" depart="120.60" departLane="best" from="60882874#0" to="31406360" type="passenger"/>
    <trip id="veh203" depart="121.19" departLane="best" from="31363586#3" to="-31327402" type="passenger"/>
    <trip id="veh204" depart="121.79" departLane="best" from="-32349665" to="-117076454#0" type="passenger"/>
    <trip id="veh205" depart="122.39" departLane="best" from="-41741605#0" to="-75654228" type="passenger"/>
    <trip id="veh206" depart="122.99" departLane="best" from="72449431" to="-119143323" type="passenger"/>
    <trip id="veh207" depart="123.58" departLane="best" from="103921166" to="13988685" type="passenger"/>
    <trip id="veh208" depart="124.18" departLane="best" from="-31406807#1" to="29425839#2" type="passenger"/>
    <trip id="veh209" depart="124.78" departLane="best" from="129518740" to="-317727542" type="passenger"/>
    <trip id="veh210" depart="125.37" departLane="best" from="29987290#0" to="-103921166" type="passenger"/>
    <trip id="veh211" depart="125.97" departLane="best" from="477791861#2" to="32431310" type="passenger"/>
    <trip id="veh212" depart="126.57" departLane="best" from="-170239185#1" to="-74585109#1" type="passenger"/>
    <trip id="veh213" depart="127.16" departLane="best" from="-31405027" to="74585097" type="passenger"/>
    <trip id="veh214" depart="127.76" departLane="best" from="138125681#0" to="-117167172" type="passenger"/>
    <trip id="veh215" depart="128.36" departLane="best" from="-41741607#1" to="46933340" type="passenger"/>
    <trip id="veh216" depart="128.96" departLane="best" from="117076508" to="38285771#1" type="passenger"/>
    <trip id="veh217" depart="129.55" departLane="best" from="31327366#3" to="81026648" type="passenger"/>
    <trip id="veh218" depart="130.15" departLane="best" from="187804144#2" to="74585054#1" type="passenger"/>
    <trip id="veh219" depart="130.75" departLane="best" from="74585107#1" to="138125081" type="passenger"/>
    <trip id="veh220" depart="131.34" departLane="best" from="368359400#2" to="-85523631" type="passenger"/>
    <trip id="veh221" depart="131.94" departLane="best" from="69231138#0" to="110781520" type="passenger"/>
    <trip id="veh222" depart="132.54" departLane="best" from="74816878#0" to="31405005#1" type="passenger"/>
    <trip id="veh223" depart="133.13" departLane="best" from="118611608#0" to="-33708057#4" type="passenger"/>
    <trip id="veh224" depart="133.73" departLane="best" from="-41741606" to="14794461#1" type="passenger"/>
    <trip id="veh226" depart="134.93" departLane="best" from="29301228#4" to="-368359400#5" type="passenger"/>
    <trip id="veh227" depart="135.52" departLane="best" from="-138141923#1" to="-41502795#0" type="passenger"/>
    <trip id="veh228" depart="136.12" departLane="best" from="-46933340" to="-52066375#1" type="passenger"/>
    <trip id="veh229" depart="136.72" departLane="best" from="138290303" to="-151390592#2" type="passenger"/>
    <trip id="veh230" depart="137.31" departLane="best" from="-39631152" to="29313475" type="passenger"/>
    <trip id="veh231" depart="137.91" departLane="best" from="346637730#3" to="-118611624" type="passenger"/>
    <trip id="veh232" depart="138.51" departLane="best" from="-98387827" to="109021464#3" type="passenger"/>
    <trip id="veh233" depart="139.10" departLane="best" from="104987296" to="-29986878#3" type="passenger"/>
    <trip id="veh234" depart="139.70" departLane="best" from="107254386#1" to="5364554" type="passenger"/>
    <trip id="veh235" depart="140.30" departLane="best" from="173776672" to="29313765#1" type="passenger"/>
    <trip id="veh236" depart="140.90" departLane="best" from="727181" to="31406811" type="passenger"/>
    <trip id="veh237" depart="141.49" departLane="best" from="-74816894#1" to="-104987296" type="passenger"/>
    <trip id="veh238" depart="142.09" departLane="best" from="-69329629#2" to="31406498" type="passenger"/>
    <trip id="veh239" depart="142.69" departLane="best" from="72449434#0" to="74585070#1" type="passenger"/>
    <trip id="veh240" depart="143.28" departLane="best" from="106107145#2" to="31405169#1" type="passenger"/>
    <trip id="veh241" depart="143.88" departLane="best" from="138397656" to="138016956#9" type="passenger"/>
    <trip id="veh242" depart="144.48" departLane="best" from="-366528052#1" to="-29987687#1" type="passenger"/>
    <trip id="veh243" depart="145.07" departLane="best" from="114395942" to="-117076458#0" type="passenger"/>
    <trip id="veh244" depart="145.67" departLane="best" from="-61808827#4" to="215206426" type="passenger"/>
    <trip id="veh245" depart="146.27" departLane="best" from="-85523650#1" to="-20361913#2" type="passenger"/>
    <trip id="veh246" depart="146.87" departLane="best" from="117581385#0" to="-139904133" type="passenger"/>
    <trip id="veh247" depart="147.46" departLane="best" from="274277292" to="-117076457#0" type="passenger"/>
    <trip id="veh248" depart="148.06" departLane="best" from="-117076507#1" to="14890634#0" type="passenger"/>
    <trip id="veh249" depart="148.66" departLane="best" from="-29712350#1" to="-75654218" type="passenger"/>
    <trip id="veh250" depart="149.25" departLane="best" from="-129027252#1" to="-69329600#0" type="passenger"/>
    <trip id="veh251" depart="149.85" departLane="best" from="-337008054#0" to="-5312391#2" type="passenger"/>
    <trip id="veh252" depart="150.45" departLane="best" from="477791976#2" to="-69329600#0" type="passenger"/>
    <trip id="veh253" depart="151.05" departLane="best" from="477791907#1" to="41741614#2" type="passenger"/>
    <trip id="veh254" depart="151.64" departLane="best" from="-41741609" to="-135342446#0" type="passenger"/>
    <trip id="veh255" depart="152.24" departLane="best" from="-114395948" to="108987506#2" type="passenger"/>
    <trip id="veh257" depart="153.43" departLane="best" from="29986883" to="33696908" type="passenger"/>
    <trip id="veh258" depart="154.03" departLane="best" from="29986909" to="31406507#1" type="passenger"/>
    <trip id="veh259" depart="154.63" departLane="best" from="80511377" to="-29986047" type="passenger"/>
    <trip id="veh260" depart="155.22" departLane="best" from="-117076454#1" to="-170229604#0" type="passenger"/>
    <trip id="veh261" depart="155.82" departLane="best" from="-2390357#2" to="20361913#2" type="passenger"/>
    <trip id="veh262" depart="156.42" departLane="best" from="15136681" to="-29987687#0" type="passenger"/>
    <trip id="veh263" depart="157.02" departLane="best" from="33696904#0" to="31406816#0" type="passenger"/>
    <trip id="veh264" depart="157.61" departLane="best" from="-31328484#2" to="138017448" type="passenger"/>
    <trip id="veh265" depart="158.21" departLane="best" from="477599183#0" to="-138289835" type="passenger"/>
    <trip id="veh266" depart="158.81" departLane="best" from="60882874#0" to="747234#1" type="passenger"/>
    <trip id="veh267" depart="159.40" departLane="best" from="-17187928#1" to="-117076456#0" type="passenger"/>
    <trip id="veh268" depart="160.00" departLane="best" from="-5364468#5" to="208463455" type="passenger"/>
    <trip id="veh269" depart="160.60" departLane="best" from="81157524" to="-727509#1" type="passenger"/>
    <trip id="veh270" depart="161.19" departLane="best" from="366528055#1" to="-120548960" type="passenger"/>
    <trip id="veh271" depart="161.79" departLane="best" from="32431649#1" to="138397654#14" type="passenger"/>
    <trip id="veh272" depart="162.39" departLane="best" from="-165996563#0" to="32431659" type="passenger"/>
    <trip id="veh273" depart="162.99" departLane="best" from="72449431" to="137231956#3" type="passenger"/>
    <trip id="veh274" depart="163.58" departLane="best" from="-208463455" to="75654209#4" type="passenger"/>
    <trip id="veh275" depart="164.18" departLane="best" from="5312405#0" to="-58197732#0" type="passenger"/>
    <trip id="veh276" depart="164.78" departLane="best" from="110781524" to="-69231138#0" type="passenger"/>
    <trip id="veh277" depart="165.37" departLane="best" from="137231955" to="-5364534#1" type="passenger"/>
    <trip id="veh278" depart="165.97" departLane="best" from="72449431" to="41741605#4" type="passenger"/>
    <trip id="veh279" depart="166.57" departLane="best" from="-170229602" to="74585118#2" type="passenger"/>
    <trip id="veh280" depart="167.16" departLane="best" from="29985132" to="41741610" type="passenger"/>
    <trip id="veh281" depart="167.76" departLane="best" from="34817465#3" to="-751049#0" type="passenger"/>
    <trip id="veh282" depart="168.36" departLane="best" from="41741605#1" to="74816878#1" type="passenger"/>
    <trip id="veh283" depart="168.96" departLane="best" from="-462149208" to="41502795#1" type="passenger"/>
    <trip id="veh284" depart="169.55" departLane="best" from="138289835" to="-80511377" type="passenger"/>
    <trip id="veh285" depart="170.15" departLane="best" from="114395942" to="31326983#2" type="passenger"/>
    <trip id="veh286" depart="170.75" departLane="best" from="-432966429#2" to="477791861#0" type="passenger"/>
    <trip id="veh287" depart="171.34" departLane="best" from="69231138#0" to="-137231958" type="passenger"/>