<?xml version="1.0" encoding="UTF-8"?>

<!-- generated on Thu Nov  2 19:16:04 2017 by SUMO polyconvert Version 0.30.0
<?xml version="1.0" encoding="UTF-8"?>

<configuration xmlns:xsi="http://www.w3.org/2001/XMLSchema-instance" xsi:noNamespaceSchemaLocation="http://sumo.dlr.de/xsd/polyconvertConfiguration.xsd">

    <input>
        <net-file value="/home/kealan/College/fyp/mapdata/2017-11-02-19-15-53/osm.net.xml"/>
        <osm-files value="osm_bbox.osm.xml"/>
        <osm.keep-full-type value="true"/>
        <type-file value="/home/kealan/sumo-svn/data/typemap/osmPolyconvert.typ.xml"/>
    </input>

    <output>
        <output-file value="/home/kealan/College/fyp/mapdata/2017-11-02-19-15-53/osm.poly.xml"/>
    </output>

    <processing>
        <poi-layer-offset value="5"/>
    </processing>

    <report>
        <verbose value="true"/>
    </report>

</configuration>
-->

<additional xmlns:xsi="http://www.w3.org/2001/XMLSchema-instance" xsi:noNamespaceSchemaLocation="http://sumo.dlr.de/xsd/additional_file.xsd">
    <location netOffset="-529673.90,-5747245.84" convBoundary="-0.00,-112.96,10096.26,4197.27" origBoundary="-8.574442,51.873789,-8.421982,51.912524" projParameter="+proj=utm +zone=29 +ellps=WGS84 +datum=WGS84 +units=m +no_defs"/>

    <poly id="100718174" type="building.yes" color="255,230,230" fill="1" layer="-1.00" shape="6389.07,2945.14 6383.42,2946.64 6385.49,2954.41 6391.14,2952.92 6389.07,2945.14"/>
    <poly id="100718175" type="building.yes" color="255,230,230" fill="1" layer="-1.00" shape="6404.68,2941.11 6396.84,2943.00 6399.70,2953.35 6405.14,2952.23 6404.69,2946.92 6404.68,2941.11"/>
    <poly id="100718178" type="building.yes" color="255,230,230" fill="1" layer="-1.00" shape="6504.02,2947.25 6515.67,2949.95 6508.84,2979.23 6502.21,2977.69 6507.14,2956.52 6502.13,2955.36 6503.75,2948.43 6504.02,2947.25"/>
    <poly id="100718179" type="building.yes" color="255,230,230" fill="1" layer="-1.00" shape="6490.13,2955.42 6501.26,2958.05 6502.13,2955.36 6503.75,2948.43 6492.42,2945.76 6490.13,2955.42"/>
    <poly id="100718181" type="building.yes" color="255,230,230" fill="1" layer="-1.00" shape="6396.84,2943.00 6389.07,2945.14 6391.14,2952.92 6395.12,2951.98 6395.79,2954.42 6399.70,2953.35 6396.84,2943.00"/>
    <poly id="100718183" type="building.yes" color="255,230,230" fill="1" layer="-1.00" shape="6377.74,2947.85 6371.52,2950.07 6374.20,2957.01 6380.10,2955.40 6377.74,2947.85"/>
    <poly id="100718185" type="building.yes" color="255,230,230" fill="1" layer="-1.00" shape="6456.78,3007.49 6457.13,3012.25 6447.58,3013.07 6448.07,3018.76 6440.71,3019.39 6440.24,3013.88 6429.99,3014.76 6428.95,3002.58 6454.08,3000.42 6456.11,3000.26 6456.35,3002.37 6456.78,3007.49"/>
    <poly id="100718189" type="building.yes" color="255,230,230" fill="1" layer="-1.00" shape="6383.42,2946.64 6377.74,2947.85 6380.10,2955.40 6385.49,2954.41 6383.42,2946.64"/>
    <poly id="100718838" type="building.yes" color="255,230,230" fill="1" layer="-1.00" shape="6401.47,3003.54 6412.39,3001.03 6411.10,2995.51 6408.96,2995.97 6408.41,2993.41 6404.66,2994.22 6404.13,2991.78 6399.17,2992.84 6401.47,3003.54"/>
    <poly id="100718842" type="building.yes" color="255,230,230" fill="1" layer="-1.00" shape="6425.32,2981.05 6425.55,2974.50 6419.81,2974.29 6419.57,2980.85 6425.32,2981.05"/>
    <poly id="100718843" type="building.yes" color="255,230,230" fill="1" layer="-1.00" shape="6380.57,2994.59 6381.43,3001.23 6386.53,3000.52 6389.70,3000.09 6388.84,2995.81 6385.40,2996.43 6385.24,2993.91 6380.57,2994.59"/>
    <poly id="100718844" type="building.yes" color="255,230,230" fill="1" layer="-1.00" shape="6390.89,2981.00 6395.79,2980.76 6396.10,2986.97 6396.15,2988.18 6391.25,2988.41 6390.89,2981.00"/>
    <poly id="100718847" type="building.yes" color="255,230,230" fill="1" layer="-1.00" shape="6381.43,3001.23 6382.44,3007.71 6390.88,3005.92 6390.07,3001.89 6386.86,3002.63 6386.53,3000.52 6381.43,3001.23"/>
    <poly id="100718848" type="building.yes" color="255,230,230" fill="1" layer="-1.00" shape="6426.40,2968.85 6426.91,2937.95 6421.02,2938.36 6421.04,2950.56 6422.28,2968.37 6426.40,2968.85"/>
    <poly id="100718850" type="building.yes" color="255,230,230" fill="1" layer="-1.00" shape="6381.97,2969.28 6376.82,2970.15 6378.13,2977.54 6382.94,2977.09 6386.89,2976.70 6386.03,2972.03 6382.09,2972.60 6381.97,2969.28"/>
    <poly id="100718851" type="building.yes" color="255,230,230" fill="1" layer="-1.00" shape="6412.39,3001.03 6418.92,2999.51 6417.63,2993.99 6411.10,2995.51 6412.39,3001.03"/>
    <poly id="100718852" type="building.yes" color="255,230,230" fill="1" layer="-1.00" shape="6401.37,2978.52 6401.29,2976.90 6407.05,2976.61 6407.47,2985.27 6401.72,2985.56 6401.37,2978.52"/>
    <poly id="100718853" type="building.yes" color="255,230,230" fill="1" layer="-1.00" shape="6378.13,2977.54 6379.71,2987.65 6384.40,2987.16 6387.73,2986.81 6387.15,2982.58 6383.83,2982.85 6382.94,2977.09 6378.13,2977.54"/>
    <poly id="100718855" type="building.yes" color="255,230,230" fill="1" layer="-1.00" shape="6421.04,2950.56 6421.02,2938.36 6413.61,2939.97 6404.68,2941.11 6404.69,2946.92 6412.91,2946.21 6413.32,2951.03 6421.04,2950.56"/>
    <poly id="100718857" type="building.yes" color="255,230,230" fill="1" layer="-1.00" shape="6406.09,2963.26 6393.87,2964.30 6393.32,2957.79 6405.53,2956.76 6406.09,2963.26"/>
    <poly id="100718860" type="building.yes" color="255,230,230" fill="1" layer="-1.00" shape="6395.79,2980.76 6395.69,2978.80 6401.37,2978.52 6401.72,2985.56 6401.77,2986.70 6396.10,2986.97 6395.79,2980.76"/>
    <poly id="100718861" type="building.yes" color="255,230,230" fill="1" layer="-1.00" shape="6424.90,2992.50 6425.14,2985.80 6419.40,2985.60 6419.16,2992.30 6424.90,2992.50"/>
    <poly id="100718863" type="building.yes" color="255,230,230" fill="1" layer="-1.00" shape="6422.28,2968.37 6406.64,2969.70 6406.09,2963.26 6405.53,2956.76 6405.14,2952.23 6404.69,2946.92 6412.91,2946.21 6413.32,2951.03 6421.04,2950.56 6422.28,2968.37"/>
    <poly id="100718864" type="building.yes" color="255,230,230" fill="1" layer="-1.00" shape="6418.92,2999.51 6424.06,2998.37 6424.90,2992.50 6419.16,2992.30 6419.25,2994.57 6417.63,2993.99 6418.92,2999.51"/>
    <poly id="100718865" type="building.yes" color="255,230,230" fill="1" layer="-1.00" shape="6390.88,3005.92 6401.47,3003.54 6399.17,2992.84 6396.89,2993.35 6396.46,2991.22 6392.56,2992.00 6393.15,2994.94 6388.84,2995.81 6389.70,3000.09 6390.07,3001.89 6390.88,3005.92"/>
    <poly id="100718870" type="building.yes" color="255,230,230" fill="1" layer="-1.00" shape="6425.14,2985.80 6425.32,2981.05 6419.57,2980.85 6419.40,2985.60 6425.14,2985.80"/>
    <poly id="100718871" type="building.yes" color="255,230,230" fill="1" layer="-1.00" shape="6379.71,2987.65 6380.57,2994.59 6385.24,2993.91 6388.44,2993.44 6387.86,2989.52 6384.53,2989.94 6384.40,2987.16 6379.71,2987.65"/>
    <poly id="103312438" type="building.yes" color="255,230,230" fill="1" layer="-1.00" shape="6712.54,539.00 6722.93,539.55 6725.43,500.16 6732.44,500.75 6733.25,489.89 6725.87,489.10 6725.91,483.58 6729.05,483.79 6729.28,478.26 6726.14,478.06 6727.95,457.81 6730.17,458.02 6732.46,421.56 6729.88,421.36 6730.48,415.28 6724.75,414.88 6724.52,420.77 6720.52,420.46 6712.62,538.43 6712.54,539.00"/>
    <poly id="103312443" type="amenity.parking" color="184,184,179" fill="1" layer="-1.00" shape="6899.24,566.61 6897.98,561.82 6889.72,554.94 6885.62,510.15 7005.54,498.51 7006.56,509.94 7011.55,509.24 7017.31,580.00 6990.53,581.83 6990.36,579.61 6980.93,580.47 6965.51,578.76 6899.24,566.61"/>
    <poly id="103924720" type="building.yes" color="255,230,230" fill="1" layer="-1.00" shape="4800.20,2669.92 4799.37,2673.66 4798.90,2675.75 4808.13,2677.79 4818.55,2680.10 4819.01,2678.07 4819.92,2673.93 4814.97,2672.84 4815.28,2671.42 4809.80,2670.21 4805.46,2669.24 4805.07,2671.00 4800.20,2669.92"/>
    <poly id="104051132" type="building.yes" color="255,230,230" fill="1" layer="-1.00" shape="7619.12,2999.96 7618.87,2994.72 7618.46,2989.80 7618.07,2985.16 7617.81,2979.41 7615.10,2979.52 7614.88,2975.53 7614.60,2969.58 7614.54,2968.45 7614.35,2964.75 7613.89,2955.66 7591.02,2957.99 7574.70,2961.77 7565.00,2964.60 7563.94,2961.61 7553.57,2965.20 7554.64,2967.78 7547.83,2971.07 7528.49,2981.19 7517.38,2987.22 7505.92,2994.99 7489.11,3008.93 7494.98,3015.26 7498.47,3019.02 7506.15,3026.87 7512.12,3032.98 7528.29,3019.30 7540.60,3011.21 7543.13,3016.50 7575.26,3001.82 7576.27,3001.35 7575.12,2995.98 7585.30,2992.81 7596.34,2990.59 7597.40,2998.78 7597.55,2999.86 7597.75,3001.43 7598.28,3005.45 7606.14,3004.40 7608.34,3024.03 7615.16,3023.12 7620.79,3022.42 7621.94,3031.53 7622.34,3031.52 7633.72,3029.74 7629.68,3001.84 7622.03,3002.72 7621.36,2999.65 7619.12,2999.96"/>
    <poly id="104051144" type="amenity.parking" color="184,184,179" fill="1" layer="-1.00" shape="7458.78,3046.93 7444.29,3043.13 7445.20,3033.37 7448.41,2976.73 7425.71,2976.37 7424.02,3030.48 7407.85,3021.53 7413.50,3006.66 7409.44,3005.70 7411.54,2996.52 7406.45,2961.32 7411.79,2946.04 7414.08,2946.58 7454.85,2956.09 7458.18,2956.87 7460.38,2955.44 7484.07,2958.66 7491.78,2967.07 7474.59,2988.59 7458.78,3046.93"/>
    <poly id="104051180" type="amenity.parking" color="184,184,179" fill="1" layer="-1.00" shape="7537.95,3056.82 7492.21,3055.66 7487.05,3054.14 7495.34,3043.62 7504.92,3033.66 7512.99,3040.34 7545.29,3019.85 7549.75,3017.26 7573.49,3006.55 7591.24,3001.90 7594.29,3025.76 7606.15,3026.17 7607.57,3038.84 7605.15,3041.95 7586.15,3041.07 7584.46,3044.01 7540.36,3044.22 7539.94,3052.98 7537.95,3056.82"/>
    <poly id="104893710" type="building.clubhouse" color="255,230,230" fill="1" layer="-1.00" shape="6639.66,763.53 6657.19,761.30 6657.00,759.83 6659.25,759.54 6656.85,740.73 6648.82,741.75 6648.24,737.17 6641.06,738.09 6641.30,739.91 6636.71,740.49 6639.66,763.53"/>
    <poly id="104893713" type="building.yes" color="255,230,230" fill="1" layer="-1.00" shape="6749.09,597.94 6733.99,592.31 6738.69,579.64 6747.19,579.70 6754.00,582.33 6754.76,579.75 6772.26,585.22 6766.44,599.18 6754.84,594.49 6754.27,595.95 6750.41,594.27 6749.09,597.94"/>
    <poly id="104906738" type="amenity.place_of_worship" color="237,199,199" fill="1" layer="-1.00" shape="7242.79,3022.45 7237.45,3021.91 7237.09,3025.42 7234.15,3025.12 7231.80,3027.25 7228.90,3028.03 7225.82,3026.94 7223.96,3024.08 7220.38,3023.72 7220.75,3020.08 7212.28,3019.22 7213.42,3008.16 7216.86,3008.51 7218.69,2990.67 7225.51,2991.36 7226.11,2985.53 7240.93,2987.04 7240.31,2993.02 7245.76,2993.57 7242.79,3022.45"/>
    <poly id="104906738#1" type="building.yes" color="255,230,230" fill="1" layer="-1.00" shape="7242.79,3022.45 7237.45,3021.91 7237.09,3025.42 7234.15,3025.12 7231.80,3027.25 7228.90,3028.03 7225.82,3026.94 7223.96,3024.08 7220.38,3023.72 7220.75,3020.08 7212.28,3019.22 7213.42,3008.16 7216.86,3008.51 7218.69,2990.67 7225.51,2991.36 7226.11,2985.53 7240.93,2987.04 7240.31,2993.02 7245.76,2993.57 7242.79,3022.45"/>
    <poly id="104987300" type="building.supermarket" color="255,230,230" fill="1" layer="-1.00" shape="6880.03,1041.00 6863.46,1044.19 6864.72,1050.71 6852.06,1053.15 6840.68,994.27 6872.42,988.16 6877.25,1013.17 6874.75,1013.65 6880.03,1041.00"/>
    <poly id="104987300#1" type="shop.supermarket" color="237,199,255" fill="1" layer="-1.00" shape="6880.03,1041.00 6863.46,1044.19 6864.72,1050.71 6852.06,1053.15 6840.68,994.27 6872.42,988.16 6877.25,1013.17 6874.75,1013.65 6880.03,1041.00"/>
    <poly id="106107072" type="building.yes" color="255,230,230" fill="1" layer="-1.00" shape="4791.39,564.52 4779.78,619.74 4749.14,613.34 4752.96,600.41 4755.95,587.93 4754.57,585.94 4754.50,583.54 4755.57,581.64 4757.47,580.42 4758.64,572.98 4759.15,565.73 4775.99,569.24 4777.59,561.64 4791.39,564.52"/>
    <poly id="106107078" type="building.yes" color="255,230,230" fill="1" layer="-1.00" shape="4696.13,621.67 4690.32,649.48 4724.31,656.56 4730.13,628.72 4722.76,627.19 4723.78,622.35 4727.05,623.03 4731.42,602.08 4710.16,597.67 4705.98,618.11 4702.37,617.66 4702.17,620.32 4697.68,619.50 4697.23,621.78 4696.13,621.67"/>
    <poly id="106107079" type="building.supermarket" color="255,230,230" fill="1" layer="-1.00" shape="5321.82,793.40 5254.08,806.75 5252.64,800.08 5258.19,798.88 5253.64,777.84 5284.00,771.31 5283.18,767.55 5314.65,760.47 5321.82,793.40"/>
    <poly id="106107079#1" type="shop.supermarket" color="237,199,255" fill="1" layer="-1.00" shape="5321.82,793.40 5254.08,806.75 5252.64,800.08 5258.19,798.88 5253.64,777.84 5284.00,771.31 5283.18,767.55 5314.65,760.47 5321.82,793.40"/>
    <poly id="106107086" type="building.yes" color="255,230,230" fill="1" layer="-1.00" shape="4727.63,747.01 4690.12,740.15 4690.00,740.41 4680.55,738.77 4680.54,738.41 4669.00,736.29 4674.75,704.84 4679.24,705.70 4679.61,702.82 4688.54,704.51 4687.92,707.34 4699.94,709.61 4700.95,702.60 4715.61,705.36 4714.50,712.36 4733.39,715.92 4727.63,747.01"/>
    <poly id="106107094" type="building.yes" color="255,230,230" fill="1" layer="-1.00" shape="4716.79,730.71 4712.01,730.00 4712.55,726.40 4717.33,727.13 4716.79,730.71"/>
    <poly id="106107100" type="building.yes" color="255,230,230" fill="1" layer="-1.00" shape="5060.57,580.70 5053.61,581.97 5055.63,593.00 5062.59,591.73 5060.57,580.70"/>
    <poly id="106107105" type="landuse.retail" color="194,194,130" fill="1" layer="-3.00" shape="5250.25,808.08 5321.82,793.40 5337.88,790.09 5328.30,735.70 5326.66,732.38 5324.09,730.15 5321.14,729.39 5317.45,729.37 5313.56,731.00 5311.70,733.19 5311.13,736.13 5298.56,737.70 5296.92,733.83 5294.53,732.70 5291.40,732.50 5239.48,737.84 5237.06,739.85 5235.38,742.79 5234.99,746.10 5245.79,785.95 5250.25,808.08"/>
    <poly id="106107108" type="building.yes" color="255,230,230" fill="1" layer="-1.00" shape="4687.64,595.02 4694.08,604.49 4676.19,615.56 4677.00,616.70 4669.21,622.38 4666.29,637.61 4665.21,637.39 4664.54,640.78 4669.13,641.69 4666.80,653.40 4663.70,652.79 4663.06,655.98 4666.21,656.60 4663.62,669.65 4664.72,669.87 4663.23,677.37 4661.94,677.12 4661.12,681.25 4636.63,676.41 4639.72,660.86 4648.53,662.60 4653.36,638.27 4656.42,638.87 4657.11,635.43 4655.16,635.04 4658.81,616.20 4669.40,607.98 4667.80,605.26 4672.89,601.82 4674.39,604.01 4687.64,595.02"/>
    <poly id="106107112" type="leisure.pitch" color="207,245,201" fill="1" layer="-2.00" shape="4769.94,716.18 4733.06,708.93 4729.41,703.56 4737.26,662.73 4782.98,671.89 4775.32,712.90 4769.94,716.18"/>
    <poly id="106107112#1" type="sport.soccer" color="79,230,125" fill="1" layer="-2.00" shape="4769.94,716.18 4733.06,708.93 4729.41,703.56 4737.26,662.73 4782.98,671.89 4775.32,712.90 4769.94,716.18"/>
    <poly id="106107115" type="leisure.recreation_ground" color="207,245,201" fill="1" layer="-2.00" shape="4788.74,640.62 4743.20,631.28 4737.45,661.07 4783.18,670.42 4788.74,640.62"/>
    <poly id="106107117" type="building.yes" color="255,230,230" fill="1" layer="-1.00" shape="4874.63,565.73 4882.00,557.32 4892.38,566.39 4885.01,574.79 4874.63,565.73"/>
    <poly id="106107118" type="building.yes" color="255,230,230" fill="1" layer="-1.00" shape="4763.94,754.80 4742.61,751.12 4744.42,740.67 4765.74,744.33 4763.94,754.80"/>
    <poly id="106107129" type="amenity.parking" color="184,184,179" fill="1" layer="-1.00" shape="5241.83,744.49 5236.65,745.37 5243.46,775.25 5257.52,771.67 5258.41,776.46 5283.37,771.12 5282.11,766.50 5314.65,760.47 5321.82,793.40 5336.78,789.72 5326.64,736.06 5324.97,736.23 5324.08,731.07 5314.48,731.74 5314.44,736.71 5295.60,738.60 5294.89,733.99 5240.94,739.88 5241.83,744.49"/>
    <poly id="106107157" type="building.yes" color="255,230,230" fill="1" layer="-1.00" shape="4695.55,726.73 4684.96,724.95 4685.59,721.26 4696.18,723.04 4695.55,726.73"/>
    <poly id="106107164" type="leisure.pitch" color="207,245,201" fill="1" layer="-2.00" shape="4723.29,680.40 4691.78,674.20 4695.31,656.34 4726.82,662.55 4723.29,680.40"/>
    <poly id="106107164#1" type="sport.tennis" color="79,230,125" fill="1" layer="-2.00" shape="4723.29,680.40 4691.78,674.20 4695.31,656.34 4726.82,662.55 4723.29,680.40"/>
    <poly id="106973482" type="amenity.theatre" color="237,199,199" fill="1" layer="-1.00" shape="6369.47,2528.25 6371.70,2523.30 6374.11,2524.05 6375.69,2524.06 6377.52,2523.35 6378.74,2522.02 6379.00,2519.36 6378.05,2516.82 6374.78,2515.10 6376.52,2510.39 6342.99,2497.56 6336.43,2516.03 6369.47,2528.25"/>
    <poly id="106973482#1" type="building.yes" color="255,230,230" fill="1" layer="-1.00" shape="6369.47,2528.25 6371.70,2523.30 6374.11,2524.05 6375.69,2524.06 6377.52,2523.35 6378.74,2522.02 6379.00,2519.36 6378.05,2516.82 6374.78,2515.10 6376.52,2510.39 6342.99,2497.56 6336.43,2516.03 6369.47,2528.25"/>
    <poly id="106973483" type="building.yes" color="255,230,230" fill="1" layer="-1.00" shape="6355.98,2475.85 6365.36,2455.22 6417.76,2474.72 6415.50,2485.48 6383.31,2472.78 6378.37,2484.85 6355.98,2475.85"/>
    <poly id="107057555" type="building.yes" color="255,230,230" fill="1" layer="-1.00" shape="7141.50,2698.92 7143.95,2690.80 7145.83,2691.31 7156.01,2660.02 7154.43,2659.51 7157.48,2650.60 7132.82,2633.55 7129.95,2632.24 7127.76,2632.22 7124.47,2632.68 7122.66,2634.46 7113.76,2654.45 7115.55,2655.15 7113.83,2659.21 7111.54,2659.19 7100.39,2685.82 7141.50,2698.92"/>
    <poly id="107190199" type="waterway.weir" color="181,209,209" fill="0" layer="-4.00" shape="6356.89,2292.75 6352.31,2301.84 6347.91,2311.63"/>
    <poly id="107285293" type="building.yes" color="255,230,230" fill="1" layer="-1.00" shape="7209.46,2675.33 7209.84,2674.09 7211.34,2673.23 7213.71,2673.63 7214.69,2675.12 7214.67,2677.10 7213.42,2678.34 7211.68,2678.45 7210.07,2678.19 7209.79,2681.16 7212.90,2681.93 7213.23,2704.02 7196.55,2702.60 7193.22,2702.14 7194.37,2698.42 7172.39,2692.31 7170.21,2701.10 7166.36,2700.57 7153.33,2700.63 7154.60,2696.61 7152.43,2695.98 7160.42,2666.56 7162.60,2667.04 7165.14,2658.38 7209.37,2670.49 7207.94,2675.29 7209.46,2675.33"/>
    <poly id="111343403" type="building.hospital" color="255,230,230" fill="1" layer="-1.00" shape="5926.37,2624.41 5924.50,2630.32 5929.39,2632.13 5931.50,2626.87 5928.43,2625.41 5930.07,2621.65 5934.87,2623.60 5936.18,2626.18 5932.78,2636.63 5946.91,2641.78 5938.77,2665.31 5963.41,2674.03 5969.83,2656.70 5980.50,2660.57 5974.69,2677.55 5977.85,2678.72 5980.13,2673.44 5984.35,2674.65 5977.21,2692.77 5927.60,2674.88 5924.60,2673.53 5921.73,2672.51 5918.14,2671.26 5917.77,2672.06 5897.30,2665.04 5907.57,2633.39 5913.77,2619.21 5926.37,2624.41"/>
    <poly id="111343410" type="building.hospital" color="255,230,230" fill="1" layer="-1.00" shape="5912.75,2691.69 5917.52,2693.44 5919.75,2694.06 5957.39,2706.62 5955.49,2711.48 5967.10,2716.17 5963.56,2725.61 5952.14,2721.45 5946.45,2734.52 5937.33,2731.09 5936.52,2733.83 5953.25,2740.86 5943.31,2764.87 5913.20,2753.23 5911.94,2756.24 5903.97,2752.81 5904.79,2750.96 5889.83,2745.10 5895.27,2728.61 5892.88,2725.26 5893.89,2722.50 5893.83,2722.68 5897.36,2721.96 5907.60,2692.98 5909.91,2691.67 5912.75,2691.69"/>
    <poly id="114395944" type="amenity.clinic" color="237,199,199" fill="1" layer="-1.00" shape="7096.33,2062.61 7106.21,2105.60 7109.26,2110.87 7151.45,2099.56 7146.83,2083.23 7142.66,2065.42 7140.24,2060.05 7132.97,2051.73 7096.33,2062.61"/>
    <poly id="114395951" type="amenity.clinic" color="237,199,199" fill="1" layer="-1.00" shape="7108.95,2111.42 7119.50,2137.15 7130.38,2149.56 7135.25,2148.70 7162.75,2141.18 7151.96,2100.19 7108.95,2111.42"/>
    <poly id="114579060" type="building.yes" color="255,230,230" fill="1" layer="-1.00" shape="7473.38,1382.03 7470.42,1375.92 7491.36,1365.21 7492.09,1367.24 7495.05,1365.97 7503.05,1382.79 7498.60,1384.96 7497.69,1382.93 7497.06,1383.33 7492.96,1374.43 7491.28,1374.96 7490.75,1373.49 7473.38,1382.03"/>
    <poly id="114579061" type="building.yes" color="255,230,230" fill="1" layer="-1.00" shape="7416.86,1403.47 7404.63,1410.28 7400.46,1402.85 7412.70,1396.03 7416.86,1403.47"/>
    <poly id="114579062" type="building.yes" color="255,230,230" fill="1" layer="-1.00" shape="7498.40,1331.11 7507.26,1328.00 7491.04,1282.20 7482.18,1285.31 7498.40,1331.11"/>
    <poly id="114579063" type="building.yes" color="255,230,230" fill="1" layer="-1.00" shape="7451.48,1457.32 7434.45,1423.28 7425.31,1427.83 7415.31,1407.83 7407.45,1411.74 7421.10,1439.02 7425.95,1436.61 7427.78,1440.26 7424.00,1442.14 7423.03,1440.20 7416.96,1443.22 7422.67,1454.65 7427.58,1452.20 7434.39,1465.82 7451.48,1457.32"/>
    <poly id="114579064" type="building.yes" color="255,230,230" fill="1" layer="-1.00" shape="7490.45,1465.50 7479.05,1471.20 7467.32,1447.82 7476.54,1443.21 7477.53,1445.19 7479.70,1444.11 7490.45,1465.50"/>
    <poly id="114579065" type="building.yes" color="255,230,230" fill="1" layer="-1.00" shape="7518.75,1352.45 7511.77,1327.73 7490.26,1338.08 7491.46,1340.44 7457.86,1357.27 7454.52,1350.64 7437.23,1359.30 7439.88,1364.56 7442.19,1363.40 7445.82,1370.61 7441.46,1372.80 7439.57,1369.06 7433.30,1372.21 7439.48,1384.48 7493.85,1357.24 7494.61,1358.57 7498.55,1357.35 7501.04,1361.80 7518.75,1352.45"/>
    <poly id="114579068" type="building.yes" color="255,230,230" fill="1" layer="-1.00" shape="7500.47,1556.74 7471.29,1569.26 7474.79,1577.37 7459.69,1583.84 7461.22,1587.38 7463.51,1586.39 7465.58,1591.18 7472.41,1588.25 7473.25,1590.20 7483.16,1585.95 7484.37,1585.43 7484.88,1586.54 7513.09,1573.59 7507.44,1561.34 7502.13,1563.78 7503.66,1567.11 7482.91,1576.63 7482.59,1575.95 7502.24,1567.53 7500.31,1563.07 7502.75,1562.02 7500.47,1556.74"/>
    <poly id="114579069" type="building.yes" color="255,230,230" fill="1" layer="-1.00" shape="7409.51,1385.87 7420.56,1380.28 7415.66,1370.63 7427.52,1364.62 7436.14,1381.59 7432.98,1383.18 7435.65,1388.44 7415.89,1398.43 7409.51,1385.87"/>
    <poly id="114579073" type="building.yes" color="255,230,230" fill="1" layer="-1.00" shape="7442.69,1434.72 7426.67,1404.27 7453.03,1390.47 7469.05,1420.92 7442.69,1434.72"/>
    <poly id="114579075" type="building.yes" color="255,230,230" fill="1" layer="-1.00" shape="7322.25,1416.80 7326.60,1428.99 7337.33,1425.20 7338.78,1429.08 7343.96,1426.90 7337.79,1412.86 7322.25,1416.80"/>
    <poly id="114579077" type="building.yes" color="255,230,230" fill="1" layer="-1.00" shape="7451.88,1442.50 7472.89,1432.44 7477.44,1441.86 7456.42,1451.94 7451.88,1442.50"/>
    <poly id="114579078" type="building.yes" color="255,230,230" fill="1" layer="-1.00" shape="7387.95,1404.82 7357.11,1413.04 7359.41,1419.51 7353.74,1421.17 7349.74,1409.55 7380.97,1401.39 7386.30,1398.89 7387.95,1404.82"/>
    <poly id="117076461" type="building.school" color="255,230,230" fill="1" layer="-1.00" shape="6547.29,1665.59 6571.38,1659.60 6566.26,1639.16 6542.18,1645.16 6547.29,1665.59"/>
    <poly id="117076463" type="building.school" color="255,230,230" fill="1" layer="-1.00" shape="6515.41,1680.13 6505.99,1682.42 6513.51,1713.19 6515.13,1712.79 6516.15,1716.95 6523.82,1715.08 6522.91,1711.35 6524.72,1710.90 6523.04,1704.04 6536.98,1700.66 6538.98,1708.85 6547.88,1706.69 6545.85,1698.40 6557.94,1695.46 6559.10,1700.20 6560.73,1699.80 6564.34,1714.57 6582.56,1710.14 6571.74,1665.85 6568.78,1666.57 6568.04,1663.54 6561.58,1665.10 6562.52,1668.92 6559.17,1669.73 6562.09,1681.69 6518.39,1692.32 6515.41,1680.13"/>
    <poly id="117076472" type="amenity.parking" color="184,184,179" fill="1" layer="-1.00" shape="6558.65,1682.81 6523.52,1691.02 6522.80,1687.70 6517.62,1689.14 6516.01,1681.77 6522.30,1680.33 6521.04,1675.17 6524.92,1674.46 6515.51,1648.99 6518.85,1645.88 6526.22,1650.00 6532.91,1648.69 6543.99,1667.60 6544.88,1671.29 6554.50,1668.97 6558.65,1682.81"/>
    <poly id="117167152" type="amenity.parking" color="184,184,179" fill="1" layer="-1.00" shape="6510.00,1056.04 6490.03,1060.86 6503.40,1126.15 6524.11,1121.51 6510.00,1056.04"/>
    <poly id="117167160" type="amenity.parking" color="184,184,179" fill="1" layer="-1.00" shape="6458.98,1116.25 6441.96,1120.74 6432.11,1079.04 6446.17,1075.83 6453.19,1101.11 6455.22,1100.94 6458.98,1116.25"/>
    <poly id="117167165" type="amenity.school" color="237,199,199" fill="1" layer="-1.00" shape="6416.99,942.63 6417.45,943.91 6421.64,954.72 6422.67,956.21 6423.94,962.34 6421.85,963.80 6438.05,994.63 6448.58,988.79 6449.84,991.05 6465.51,982.35 6460.48,973.34 6458.63,974.37 6453.10,964.54 6458.45,960.28 6456.90,957.86 6459.76,957.27 6458.04,948.94 6436.46,953.37 6434.93,949.60 6439.25,947.93 6437.69,943.91 6440.58,942.80 6434.33,926.69 6433.39,924.74 6436.71,923.09 6434.47,918.57 6426.29,922.62 6425.19,920.41 6416.64,924.64 6415.84,923.03 6408.93,926.44 6416.99,942.63"/>
    <poly id="117167165#1" type="building.yes" color="255,230,230" fill="1" layer="-1.00" shape="6416.99,942.63 6417.45,943.91 6421.64,954.72 6422.67,956.21 6423.94,962.34 6421.85,963.80 6438.05,994.63 6448.58,988.79 6449.84,991.05 6465.51,982.35 6460.48,973.34 6458.63,974.37 6453.10,964.54 6458.45,960.28 6456.90,957.86 6459.76,957.27 6458.04,948.94 6436.46,953.37 6434.93,949.60 6439.25,947.93 6437.69,943.91 6440.58,942.80 6434.33,926.69 6433.39,924.74 6436.71,923.09 6434.47,918.57 6426.29,922.62 6425.19,920.41 6416.64,924.64 6415.84,923.03 6408.93,926.44 6416.99,942.63"/>
    <poly id="117167167" type="leisure.playground" color="207,245,201" fill="1" layer="-2.00" shape="6510.55,1159.71 6510.60,1177.94 6491.77,1177.99 6491.35,1160.12 6510.55,1159.71"/>
    <poly id="117167174" type="building.yes" color="255,230,230" fill="1" layer="-1.00" shape="6502.44,1101.18 6466.79,1109.72 6463.54,1097.33 6454.41,1099.71 6448.10,1075.69 6493.84,1064.66 6502.44,1101.18"/>
    <poly id="117167177" type="amenity.library" color="237,199,199" fill="1" layer="-1.00" shape="6379.04,1058.06 6351.54,1064.89 6353.27,1071.36 6340.92,1074.56 6338.54,1067.90 6334.32,1064.18 6333.42,1054.49 6350.75,1049.62 6345.99,1033.14 6350.22,1032.07 6355.82,1051.63 6370.81,1047.87 6365.25,1027.78 6370.05,1026.33 6379.04,1058.06"/>
    <poly id="117167177#1" type="building.yes" color="255,230,230" fill="1" layer="-1.00" shape="6379.04,1058.06 6351.54,1064.89 6353.27,1071.36 6340.92,1074.56 6338.54,1067.90 6334.32,1064.18 6333.42,1054.49 6350.75,1049.62 6345.99,1033.14 6350.22,1032.07 6355.82,1051.63 6370.81,1047.87 6365.25,1027.78 6370.05,1026.33 6379.04,1058.06"/>
    <poly id="117167183" type="building.yes" color="255,230,230" fill="1" layer="-1.00" shape="5954.93,972.55 5944.48,978.82 5922.39,942.22 5929.83,937.75 5947.87,967.63 5950.88,965.83 5954.93,972.55"/>
    <poly id="117167185" type="building.yes" color="255,230,230" fill="1" layer="-1.00" shape="5914.67,946.73 5919.06,953.43 5896.92,967.88 5895.61,965.90 5891.87,968.34 5883.58,955.71 5895.64,947.84 5900.84,955.77 5914.67,946.73"/>
    <poly id="117167187" type="amenity.school" color="237,199,199" fill="1" layer="-1.00" shape="6469.59,1002.35 6435.52,1010.69 6426.02,976.79 6410.16,948.14 6401.49,921.75 6395.57,922.62 6374.25,884.72 6444.85,873.99 6469.59,1002.35"/>
    <poly id="117167191" type="building.yes" color="255,230,230" fill="1" layer="-1.00" shape="5922.77,992.73 5915.27,997.40 5901.21,974.92 5908.71,970.25 5922.77,992.73"/>
    <poly id="117167192" type="leisure.recreation_ground" color="207,245,201" fill="1" layer="-2.00" shape="6523.11,1143.64 6497.48,1147.90 6496.34,1141.11 6521.97,1136.86 6523.11,1143.64"/>
    <poly id="117884752" type="leisure.pitch" color="207,245,201" fill="1" layer="-2.00" shape="6537.61,1186.14 6521.56,1189.21 6514.41,1152.22 6530.47,1149.14 6537.61,1186.14"/>
    <poly id="117983105" type="building.yes" color="255,230,230" fill="1" layer="-1.00" shape="7232.15,451.16 7221.70,452.05 7222.16,457.47 7232.62,456.57 7232.15,451.16"/>
    <poly id="117983113" type="building.yes" color="255,230,230" fill="1" layer="-1.00" shape="7246.43,468.55 7238.80,469.38 7236.51,448.16 7243.64,447.40 7244.27,453.36 7263.24,451.31 7264.46,462.61 7261.42,462.94 7261.91,467.48 7254.37,468.29 7253.88,463.83 7246.02,464.67 7246.43,468.55"/>
    <poly id="117983119" type="building.yes" color="255,230,230" fill="1" layer="-1.00" shape="7224.86,482.48 7213.73,483.78 7211.22,462.43 7222.34,461.14 7224.86,482.48"/>
    <poly id="118156058" type="amenity.police" color="237,199,199" fill="1" layer="-1.00" shape="6235.77,2216.78 6234.99,2205.22 6232.60,2205.38 6230.76,2178.14 6243.35,2177.29 6243.42,2178.41 6254.98,2177.63 6254.35,2168.28 6220.91,2170.53 6223.32,2206.03 6220.57,2206.21 6221.35,2217.75 6235.77,2216.78"/>
    <poly id="118156058#1" type="building.yes" color="255,230,230" fill="1" layer="-1.00" shape="6235.77,2216.78 6234.99,2205.22 6232.60,2205.38 6230.76,2178.14 6243.35,2177.29 6243.42,2178.41 6254.98,2177.63 6254.35,2168.28 6220.91,2170.53 6223.32,2206.03 6220.57,2206.21 6221.35,2217.75 6235.77,2216.78"/>
    <poly id="118247149" type="amenity.place_of_worship" color="237,199,199" fill="1" layer="-1.00" shape="6209.83,890.61 6230.47,898.61 6223.50,916.51 6225.69,917.35 6223.01,924.23 6220.38,923.21 6214.51,938.30 6215.78,938.80 6212.76,946.56 6210.29,945.60 6208.08,951.26 6212.85,953.11 6210.46,959.26 6205.62,957.39 6204.57,960.09 6197.52,957.36 6202.48,944.63 6195.50,941.93 6196.32,939.81 6191.73,938.04 6192.54,935.97 6185.62,933.28 6187.54,928.36 6194.26,930.95 6200.24,915.59 6197.88,914.68 6200.01,909.20 6202.25,910.07 6209.83,890.61"/>
    <poly id="118247149#1" type="building.yes" color="255,230,230" fill="1" layer="-1.00" shape="6209.83,890.61 6230.47,898.61 6223.50,916.51 6225.69,917.35 6223.01,924.23 6220.38,923.21 6214.51,938.30 6215.78,938.80 6212.76,946.56 6210.29,945.60 6208.08,951.26 6212.85,953.11 6210.46,959.26 6205.62,957.39 6204.57,960.09 6197.52,957.36 6202.48,944.63 6195.50,941.93 6196.32,939.81 6191.73,938.04 6192.54,935.97 6185.62,933.28 6187.54,928.36 6194.26,930.95 6200.24,915.59 6197.88,914.68 6200.01,909.20 6202.25,910.07 6209.83,890.61"/>