<?xml version="1.0" encoding="UTF-8"?>

<!-- generated on Thu Nov  9 21:32:43 2017 by SUMO netconvert Version 0.30.0
<?xml version="1.0" encoding="UTF-8"?>

<configuration xmlns:xsi="http://www.w3.org/2001/XMLSchema-instance" xsi:noNamespaceSchemaLocation="http://sumo.dlr.de/xsd/netconvertConfiguration.xsd">

    <input>
        <type-files value="/home/kealan/sumo-svn/data/typemap/osmNetconvert.typ.xml"/>
        <osm-files value="osm_bbox.osm.xml"/>
    </input>

    <output>
        <output-file value="/home/kealan/College/fyp/mapdata/2017-11-09-21-32-41/osm.net.xml"/>
        <output.street-names value="true"/>
        <output.original-names value="true"/>
    </output>

    <projection>
        <proj.utm value="true"/>
    </projection>

    <tls_building>
        <tls.discard-simple value="true"/>
        <tls.join value="true"/>
        <tls.guess-signals value="true"/>
        <tls.default-type value="actuated"/>
    </tls_building>

    <ramp_guessing>
        <ramps.guess value="true"/>
    </ramp_guessing>

    <processing>
        <geometry.remove value="true"/>
        <roundabouts.guess value="true"/>
        <junctions.join value="true"/>
        <junctions.corner-detail value="5"/>
    </processing>

    <report>
        <verbose value="true"/>
    </report>

</configuration>
-->

<net version="0.27" junctionCornerDetail="5" xmlns:xsi="http://www.w3.org/2001/XMLSchema-instance" xsi:noNamespaceSchemaLocation="http://sumo.dlr.de/xsd/net_file.xsd">

    <location netOffset="-533219.54,-5748329.09" convBoundary="0.00,0.00,965.34,775.83" origBoundary="-8.517303,51.884699,-8.503274,51.891671" projParameter="+proj=utm +zone=29 +ellps=WGS84 +datum=WGS84 +units=m +no_defs"/>

    <type id="highway.bridleway" priority="1" numLanes="1" speed="2.78" allow="pedestrian" oneway="1" width="2.00"/>
    <type id="highway.bus_guideway" priority="1" numLanes="1" speed="8.33" allow="bus" oneway="1"/>
    <type id="highway.cycleway" priority="1" numLanes="1" speed="5.56" allow="bicycle" oneway="0" width="1.00"/>
    <type id="highway.footway" priority="1" numLanes="1" speed="2.78" allow="pedestrian" oneway="1" width="2.00"/>
    <type id="highway.ford" priority="1" numLanes="1" speed="2.78" allow="army" oneway="0"/>
    <type id="highway.living_street" priority="3" numLanes="1" speed="2.78" disallow="tram rail_urban rail rail_electric ship" oneway="0"/>
    <type id="highway.motorway" priority="13" numLanes="2" speed="44.44" allow="private emergency authority army vip passenger hov taxi bus coach delivery truck trailer motorcycle evehicle custom1 custom2" oneway="1"/>
    <type id="highway.motorway_link" priority="12" numLanes="1" speed="22.22" allow="private emergency authority army vip passenger hov taxi bus coach delivery truck trailer motorcycle evehicle custom1 custom2" oneway="1"/>
    <type id="highway.path" priority="1" numLanes="1" speed="2.78" allow="bicycle pedestrian" oneway="1" width="2.00"/>
    <type id="highway.pedestrian" priority="1" numLanes="1" speed="2.78" allow="pedestrian" oneway="1" width="2.00"/>
    <type id="highway.primary" priority="9" numLanes="2" speed="27.78" disallow="tram rail_urban rail rail_electric ship" oneway="0"/>
    <type id="highway.primary_link" priority="8" numLanes="1" speed="22.22" disallow="tram rail_urban rail rail_electric ship" oneway="0"/>
    <type id="highway.raceway" priority="14" numLanes="2" speed="83.33" allow="vip" oneway="0"/>
    <type id="highway.residential" priority="4" numLanes="1" speed="13.89" disallow="tram rail_urban rail rail_electric ship" oneway="0"/>
    <type id="highway.secondary" priority="7" numLanes="2" speed="27.78" disallow="tram rail_urban rail rail_electric ship" oneway="0"/>
    <type id="highway.secondary_link" priority="6" numLanes="1" speed="22.22" disallow="tram rail_urban rail rail_electric ship" oneway="0"/>
    <type id="highway.service" priority="2" numLanes="1" speed="5.56" allow="delivery bicycle pedestrian" oneway="0"/>
    <type id="highway.services" priority="1" numLanes="1" speed="8.33" disallow="tram rail_urban rail rail_electric ship" oneway="0"/>
    <type id="highway.stairs" priority="1" numLanes="1" speed="1.39" allow="pedestrian" oneway="1" width="2.00"/>
    <type id="highway.step" priority="1" numLanes="1" speed="1.39" allow="pedestrian" oneway="1" width="2.00"/>
    <type id="highway.steps" priority="1" numLanes="1" speed="1.39" allow="pedestrian" oneway="1" width="2.00"/>
    <type id="highway.tertiary" priority="6" numLanes="1" speed="22.22" disallow="tram rail_urban rail rail_electric ship" oneway="0"/>
    <type id="highway.tertiary_link" priority="5" numLanes="1" speed="22.22" disallow="tram rail_urban rail rail_electric ship" oneway="0"/>
    <type id="highway.track" priority="1" numLanes="1" speed="5.56" disallow="tram rail_urban rail rail_electric ship" oneway="0"/>
    <type id="highway.trunk" priority="11" numLanes="2" speed="27.78" disallow="tram rail_urban rail rail_electric bicycle pedestrian ship" oneway="0"/>
    <type id="highway.trunk_link" priority="10" numLanes="1" speed="22.22" disallow="tram rail_urban rail rail_electric bicycle pedestrian ship" oneway="0"/>
    <type id="highway.unclassified" priority="5" numLanes="1" speed="13.89" disallow="tram rail_urban rail rail_electric ship" oneway="0"/>
    <type id="highway.unsurfaced" priority="1" numLanes="1" speed="8.33" disallow="tram rail_urban rail rail_electric ship" oneway="0"/>
    <type id="railway.light_rail" priority="15" numLanes="1" speed="27.78" allow="rail_urban" oneway="1"/>
    <type id="railway.preserved" priority="15" numLanes="1" speed="27.78" allow="rail" oneway="1"/>
    <type id="railway.rail" priority="15" numLanes="1" speed="83.33" allow="rail rail_electric" oneway="1"/>
    <type id="railway.subway" priority="15" numLanes="1" speed="27.78" allow="rail_urban" oneway="1"/>
    <type id="railway.tram" priority="15" numLanes="1" speed="13.89" allow="tram" oneway="1"/>

    <edge id=":1846194842_0" function="internal">
        <lane id=":1846194842_0_0" index="0" allow="delivery bicycle pedestrian" speed="5.56" length="5.62" shape="622.33,429.55 621.10,429.91 620.15,430.71 619.47,431.94 619.07,433.59"/>
    </edge>
    <edge id=":1846194842_1" function="internal">
        <lane id=":1846194842_1_0" index="0" allow="delivery bicycle pedestrian" speed="5.56" length="9.33" shape="622.33,429.55 619.57,429.83 617.68,429.93 615.78,429.89 613.01,429.74"/>
    </edge>
    <edge id=":1846194842_2" function="internal">
        <lane id=":1846194842_2_0" index="0" allow="delivery bicycle pedestrian" speed="5.56" length="4.82" shape="622.33,429.55 621.00,428.86 620.50,428.09 620.82,427.22 621.96,426.27"/>
    </edge>
    <edge id=":1846194842_3" function="internal">
        <lane id=":1846194842_3_0" index="0" allow="delivery bicycle pedestrian" speed="5.56" length="8.80" shape="613.18,426.45 615.79,426.58 617.58,426.62 619.36,426.53 621.96,426.27"/>
    </edge>
    <edge id=":1846194842_4" function="internal">
        <lane id=":1846194842_4_0" index="0" allow="delivery bicycle pedestrian" speed="5.56" length="10.79" shape="613.18,426.45 616.12,427.02 618.08,428.41 619.07,430.60 619.07,433.59"/>
    </edge>
    <edge id=":1846194842_5" function="internal">
        <lane id=":1846194842_5_0" index="0" allow="delivery bicycle pedestrian" speed="5.56" length="4.82" shape="613.18,426.45 614.38,427.33 614.75,428.18 614.29,428.98 613.01,429.74"/>
    </edge>
    <edge id=":1846194842_6" function="internal">
        <lane id=":1846194842_6_0" index="0" allow="delivery bicycle pedestrian" speed="5.56" length="5.11" shape="615.80,433.13 615.80,431.71 615.34,430.67 614.41,430.02 613.01,429.74"/>
    </edge>
    <edge id=":1846194842_7" function="internal">
        <lane id=":1846194842_7_0" index="0" allow="delivery bicycle pedestrian" speed="5.56" length="10.01" shape="615.80,433.13 616.52,430.35 617.79,428.28 619.60,426.92 621.96,426.27"/>
    </edge>
    <edge id=":1846194842_8" function="internal">
        <lane id=":1846194842_8_0" index="0" allow="delivery bicycle pedestrian" speed="5.56" length="4.82" shape="615.80,433.13 616.80,432.02 617.67,431.73 618.43,432.25 619.07,433.59"/>
    </edge>
    <edge id=":1846194849_0" function="internal">
        <lane id=":1846194849_0_0" index="0" disallow="tram rail_urban rail rail_electric ship" speed="9.72" length="5.02" shape="732.28,543.07 730.91,543.25 729.92,543.82 729.32,544.78 729.10,546.13"/>
    </edge>
    <edge id=":1846194849_1" function="internal">
        <lane id=":1846194849_1_0" index="0" disallow="tram rail_urban rail rail_electric ship" speed="9.72" length="10.35" shape="732.28,543.07 729.47,542.64 727.48,541.42 726.31,539.40 725.95,536.58"/>
    </edge>
    <edge id=":1846194849_2" function="internal">
        <lane id=":1846194849_2_0" index="0" allow="delivery bicycle pedestrian" speed="5.56" length="4.82" shape="732.28,543.07 731.05,542.24 730.64,541.41 731.07,540.59 732.31,539.77"/>
    </edge>
    <edge id=":1846194849_3" function="internal">
        <lane id=":1846194849_3_0" index="0" allow="delivery bicycle pedestrian" speed="9.72" length="5.01" shape="729.25,536.63 729.43,538.00 729.99,538.97 730.96,539.57 732.31,539.77"/>
    </edge>
    <edge id=":1846194849_4" function="internal">
        <lane id=":1846194849_4_0" index="0" disallow="tram rail_urban rail rail_electric ship" speed="13.89" length="9.50" shape="729.25,536.63 729.10,546.13"/>
    </edge>
    <edge id=":1846194849_5" function="internal">
        <lane id=":1846194849_5_0" index="0" disallow="tram rail_urban rail rail_electric ship" speed="13.89" length="2.41" shape="729.25,536.63 728.41,537.86 727.58,538.26"/>
    </edge>
    <edge id=":1846194849_10" function="internal">
        <lane id=":1846194849_10_0" index="0" speed="13.89" length="2.41" shape="727.58,538.26 726.76,537.83 725.95,536.58"/>
    </edge>
    <edge id=":1846194849_6" function="internal">
        <lane id=":1846194849_6_0" index="0" disallow="tram rail_urban rail rail_electric ship" speed="13.89" length="9.50" shape="722.50,546.02 722.65,536.53"/>
        <lane id=":1846194849_6_1" index="1" disallow="tram rail_urban rail rail_electric ship" speed="13.89" length="9.50" shape="725.80,546.08 725.95,536.58"/>
    </edge>
    <edge id=":1846194849_8" function="internal">
        <lane id=":1846194849_8_0" index="0" allow="delivery bicycle pedestrian" speed="9.72" length="5.26" shape="725.80,546.08 726.25,543.29 727.48,541.32 727.58,541.26"/>
    </edge>
    <edge id=":1846194849_9" function="internal">
        <lane id=":1846194849_9_0" index="0" disallow="tram rail_urban rail rail_electric ship" speed="13.89" length="2.41" shape="725.80,546.08 726.65,544.85 727.48,544.45"/>
    </edge>
    <edge id=":1846194849_11" function="internal">
        <lane id=":1846194849_11_0" index="0" speed="9.72" length="5.06" shape="727.58,541.26 729.50,540.14 732.31,539.77"/>
    </edge>
    <edge id=":1846194849_12" function="internal">
        <lane id=":1846194849_12_0" index="0" speed="13.89" length="2.41" shape="727.48,544.45 728.30,544.88 729.10,546.13"/>
    </edge>
    <edge id=":1846194954_0" function="internal">
        <lane id=":1846194954_0_0" index="0" disallow="tram rail_urban rail rail_electric ship" speed="13.89" length="9.50" shape="617.93,464.69 608.48,463.66"/>
    </edge>
    <edge id=":1846194954_1" function="internal">
        <lane id=":1846194954_1_0" index="0" allow="delivery bicycle pedestrian" speed="9.72" length="5.26" shape="617.93,464.69 615.12,463.97 613.25,462.52"/>
    </edge>
    <edge id=":1846194954_2" function="internal">
        <lane id=":1846194954_2_0" index="0" disallow="tram rail_urban rail rail_electric ship" speed="13.89" length="2.41" shape="617.93,464.69 616.79,463.74 616.46,462.87"/>
    </edge>
    <edge id=":1846194954_9" function="internal">
        <lane id=":1846194954_9_0" index="0" speed="9.72" length="5.26" shape="613.25,462.52 612.33,460.35 612.34,457.46"/>
    </edge>
    <edge id=":1846194954_10" function="internal">
        <lane id=":1846194954_10_0" index="0" speed="13.89" length="2.41" shape="616.46,462.87 616.96,462.10 618.28,461.41"/>
    </edge>
    <edge id=":1846194954_3" function="internal">
        <lane id=":1846194954_3_0" index="0" disallow="tram rail_urban rail rail_electric ship" speed="9.72" length="5.05" shape="615.60,457.94 615.60,459.33 616.04,460.37 616.94,461.06 618.28,461.41"/>
    </edge>
    <edge id=":1846194954_4" function="internal">
        <lane id=":1846194954_4_0" index="0" disallow="tram rail_urban rail rail_electric ship" speed="9.72" length="10.33" shape="615.60,457.94 614.80,460.69 613.35,462.57 611.24,463.56 608.48,463.66"/>
    </edge>
    <edge id=":1846194954_5" function="internal">
        <lane id=":1846194954_5_0" index="0" allow="delivery bicycle pedestrian" speed="5.56" length="4.82" shape="615.60,457.94 614.61,459.04 613.73,459.33 612.97,458.80 612.34,457.46"/>
    </edge>
    <edge id=":1846194954_6" function="internal">
        <lane id=":1846194954_6_0" index="0" allow="delivery bicycle pedestrian" speed="9.72" length="5.16" shape="608.84,460.38 610.19,460.32 611.22,459.81 611.94,458.86 612.34,457.46"/>
    </edge>
    <edge id=":1846194954_7" function="internal">
        <lane id=":1846194954_7_0" index="0" disallow="tram rail_urban rail rail_electric ship" speed="13.89" length="9.50" shape="608.84,460.38 618.28,461.41"/>
    </edge>
    <edge id=":1846194954_8" function="internal">
        <lane id=":1846194954_8_0" index="0" disallow="tram rail_urban rail rail_electric ship" speed="13.89" length="2.41" shape="608.84,460.38 609.98,461.33 610.30,462.20"/>
    </edge>
    <edge id=":1846194954_11" function="internal">
        <lane id=":1846194954_11_0" index="0" speed="13.89" length="2.41" shape="610.30,462.20 609.80,462.97 608.48,463.66"/>
    </edge>
    <edge id=":1846195053_0" function="internal">
        <lane id=":1846195053_0_0" index="0" allow="delivery bicycle pedestrian" speed="5.56" length="4.82" shape="805.38,462.37 804.40,463.49 803.53,463.79 802.77,463.27 802.11,461.93"/>
    </edge>
    <edge id=":1846195132_0" function="internal">
        <lane id=":1846195132_0_0" index="0" disallow="tram rail_urban rail rail_electric ship" speed="13.89" length="9.50" shape="737.44,407.81 737.38,417.30"/>
        <lane id=":1846195132_0_1" index="1" disallow="tram rail_urban rail rail_electric ship" speed="13.89" length="9.50" shape="734.14,407.78 734.08,417.28"/>
    </edge>
    <edge id=":1846195132_2" function="internal">
        <lane id=":1846195132_2_0" index="0" allow="delivery bicycle pedestrian" speed="9.72" length="5.27" shape="734.14,407.78 733.72,410.57 732.51,412.56 732.41,412.62"/>
    </edge>
    <edge id=":1846195132_3" function="internal">
        <lane id=":1846195132_3_0" index="0" disallow="tram rail_urban rail rail_electric ship" speed="13.89" length="2.41" shape="734.14,407.78 733.31,409.01 732.48,409.42"/>
    </edge>
    <edge id=":1846195132_10" function="internal">
        <lane id=":1846195132_10_0" index="0" speed="9.72" length="5.05" shape="732.41,412.62 730.50,413.75 727.69,414.14"/>
    </edge>
    <edge id=":1846195132_11" function="internal">
        <lane id=":1846195132_11_0" index="0" speed="13.89" length="2.41" shape="732.48,409.42 731.66,409.00 730.85,407.76"/>
    </edge>
    <edge id=":1846195132_4" function="internal">
        <lane id=":1846195132_4_0" index="0" disallow="tram rail_urban rail rail_electric ship" speed="9.72" length="5.01" shape="727.71,410.84 729.07,410.65 730.05,410.08 730.64,409.11 730.85,407.76"/>
    </edge>
    <edge id=":1846195132_5" function="internal">
        <lane id=":1846195132_5_0" index="0" disallow="tram rail_urban rail rail_electric ship" speed="9.72" length="10.34" shape="727.71,410.84 730.51,411.25 732.51,412.46 733.70,414.47 734.08,417.28"/>
    </edge>
    <edge id=":1846195132_6" function="internal">
        <lane id=":1846195132_6_0" index="0" allow="delivery bicycle pedestrian" speed="5.56" length="4.82" shape="727.71,410.84 728.94,411.67 729.35,412.50 728.94,413.32 727.69,414.14"/>
    </edge>
    <edge id=":1846195132_7" function="internal">
        <lane id=":1846195132_7_0" index="0" allow="delivery bicycle pedestrian" speed="9.72" length="5.00" shape="730.78,417.26 730.59,415.90 730.02,414.93 729.05,414.34 727.69,414.14"/>
    </edge>
    <edge id=":1846195132_8" function="internal">
        <lane id=":1846195132_8_0" index="0" disallow="tram rail_urban rail rail_electric ship" speed="13.89" length="9.50" shape="730.78,417.26 730.85,407.76"/>
    </edge>
    <edge id=":1846195132_9" function="internal">
        <lane id=":1846195132_9_0" index="0" disallow="tram rail_urban rail rail_electric ship" speed="13.89" length="2.41" shape="730.78,417.26 731.61,416.03 732.44,415.62"/>
    </edge>
    <edge id=":1846195132_12" function="internal">
        <lane id=":1846195132_12_0" index="0" speed="13.89" length="2.41" shape="732.44,415.62 733.26,416.04 734.08,417.28"/>
    </edge>
    <edge id=":1846195140_0" function="internal">
        <lane id=":1846195140_0_0" index="0" allow="delivery bicycle pedestrian" speed="5.56" length="4.91" shape="605.59,429.37 604.27,429.49 603.27,429.99 602.59,430.89 602.24,432.17"/>
    </edge>
    <edge id=":1846195140_1" function="internal">
        <lane id=":1846195140_1_0" index="0" allow="delivery bicycle pedestrian" speed="5.56" length="4.82" shape="605.59,429.37 604.40,428.48 604.03,427.64 604.48,426.83 605.76,426.07"/>
    </edge>
    <edge id=":1846195140_2" function="internal">
        <lane id=":1846195140_2_0" index="0" allow="delivery bicycle pedestrian" speed="5.56" length="6.09" shape="601.65,422.69 601.79,424.08 602.52,425.11 603.85,425.78 605.76,426.07"/>
    </edge>
    <edge id=":1846195140_3" function="internal">
        <lane id=":1846195140_3_0" index="0" allow="delivery bicycle pedestrian" speed="5.56" length="9.55" shape="601.65,422.69 601.63,425.50 602.00,427.44 602.34,429.37 602.24,432.17"/>
    </edge>
    <edge id=":1846195140_4" function="internal">
        <lane id=":1846195140_4_0" index="0" allow="delivery bicycle pedestrian" speed="5.56" length="9.94" shape="598.96,431.75 599.68,429.15 601.05,427.34 603.08,426.31 605.76,426.07"/>
    </edge>
    <edge id=":1846195140_5" function="internal">
        <lane id=":1846195140_5_0" index="0" allow="delivery bicycle pedestrian" speed="5.56" length="4.82" shape="598.96,431.75 599.94,430.63 600.81,430.33 601.58,430.84 602.24,432.17"/>
    </edge>
    <edge id=":1846195158_0" function="internal">
        <lane id=":1846195158_0_0" index="0" disallow="tram rail_urban rail rail_electric ship" speed="13.89" length="9.51" shape="722.59,617.35 722.00,607.86"/>
        <lane id=":1846195158_0_1" index="1" disallow="tram rail_urban rail rail_electric ship" speed="13.89" length="9.51" shape="725.88,617.13 725.30,607.64"/>
    </edge>
    <edge id=":1846195158_2" function="internal">
        <lane id=":1846195158_2_0" index="0" allow="delivery bicycle pedestrian" speed="9.72" length="5.32" shape="725.88,617.13 726.10,614.28 727.18,612.19 727.28,612.13"/>
    </edge>
    <edge id=":1846195158_3" function="internal">
        <lane id=":1846195158_3_0" index="0" disallow="tram rail_urban rail rail_electric ship" speed="13.89" length="2.41" shape="725.88,617.13 726.63,615.84 727.42,615.37"/>
    </edge>
    <edge id=":1846195158_10" function="internal">
        <lane id=":1846195158_10_0" index="0" speed="9.72" length="5.09" shape="727.28,612.13 729.13,610.88 731.94,610.34"/>
    </edge>
    <edge id=":1846195158_11" function="internal">
        <lane id=":1846195158_11_0" index="0" speed="13.89" length="2.41" shape="727.42,615.37 728.27,615.73 729.18,616.91"/>
    </edge>
    <edge id=":1846195158_4" function="internal">
        <lane id=":1846195158_4_0" index="0" disallow="tram rail_urban rail rail_electric ship" speed="9.72" length="5.02" shape="732.10,613.64 730.74,613.90 729.80,614.53 729.28,615.54 729.18,616.91"/>
    </edge>
    <edge id=":1846195158_5" function="internal">
        <lane id=":1846195158_5_0" index="0" disallow="tram rail_urban rail rail_electric ship" speed="9.72" length="10.45" shape="732.10,613.64 729.12,613.39 727.00,612.30 725.72,610.39 725.30,607.64"/>
    </edge>
    <edge id=":1846195158_6" function="internal">
        <lane id=":1846195158_6_0" index="0" allow="delivery bicycle pedestrian" speed="5.56" length="4.82" shape="732.10,613.64 730.82,612.87 730.37,612.07 730.74,611.23 731.94,610.34"/>
    </edge>
    <edge id=":1846195158_7" function="internal">
        <lane id=":1846195158_7_0" index="0" allow="delivery bicycle pedestrian" speed="9.72" length="5.11" shape="728.60,607.43 728.80,608.76 729.43,609.69 730.48,610.22 731.94,610.34"/>
    </edge>
    <edge id=":1846195158_8" function="internal">
        <lane id=":1846195158_8_0" index="0" disallow="tram rail_urban rail rail_electric ship" speed="13.89" length="9.50" shape="728.60,607.43 729.18,616.91"/>
    </edge>
    <edge id=":1846195158_9" function="internal">
        <lane id=":1846195158_9_0" index="0" disallow="tram rail_urban rail rail_electric ship" speed="13.89" length="2.41" shape="728.60,607.43 727.85,608.72 727.05,609.19"/>
    </edge>
    <edge id=":1846195158_12" function="internal">
        <lane id=":1846195158_12_0" index="0" speed="13.89" length="2.41" shape="727.05,609.19 726.20,608.83 725.30,607.64"/>
    </edge>
    <edge id=":1846195172_0" function="internal">
        <lane id=":1846195172_0_0" index="0" allow="delivery bicycle pedestrian" speed="5.56" length="5.40" shape="680.44,409.70 678.89,409.64 677.82,409.90 676.84,410.49 675.54,411.43"/>
    </edge>
    <edge id=":1846195172_1" function="internal">
        <lane id=":1846195172_1_0" index="0" allow="delivery bicycle pedestrian" speed="5.56" length="8.79" shape="680.44,409.70 678.09,409.05 676.78,407.87 675.65,406.28 673.84,404.36"/>
    </edge>
    <edge id=":1846195172_2" function="internal">
        <lane id=":1846195172_2_0" index="0" allow="delivery bicycle pedestrian" speed="5.56" length="4.82" shape="680.44,409.70 679.30,408.74 678.99,407.88 679.49,407.10 680.81,406.42"/>
    </edge>
    <edge id=":1846195172_3" function="internal">
        <lane id=":1846195172_3_0" index="0" allow="delivery bicycle pedestrian" speed="5.56" length="5.36" shape="673.65,408.72 674.77,407.68 675.17,406.60 674.86,405.50 673.84,404.36"/>
    </edge>
    <edge id=":1846195172_4" function="internal">
        <lane id=":1846195172_4_0" index="0" allow="delivery bicycle pedestrian" speed="5.56" length="7.81" shape="673.65,408.72 675.55,407.40 676.99,406.61 678.55,406.30 680.81,406.42"/>
    </edge>
    <edge id=":1846195172_5" function="internal">
        <lane id=":1846195172_5_0" index="0" allow="delivery bicycle pedestrian" speed="5.56" length="4.82" shape="673.65,408.72 675.14,408.69 675.95,409.13 676.08,410.04 675.54,411.43"/>
    </edge>
    <edge id=":354512_0" function="internal">
        <lane id=":354512_0_0" index="0" disallow="tram rail_urban rail rail_electric ship" speed="13.89" length="7.43" shape="737.22,477.08 734.60,476.91 732.72,477.25 731.56,478.11 731.13,479.49"/>
    </edge>
    <edge id=":354512_1" function="internal">
        <lane id=":354512_1_0" index="0" disallow="tram rail_urban rail rail_electric ship" speed="13.89" length="15.68" shape="737.22,477.08 721.63,475.41"/>
    </edge>
    <edge id=":354512_2" function="internal">
        <lane id=":354512_2_0" index="0" disallow="tram rail_urban rail rail_electric ship" speed="13.89" length="7.05" shape="737.22,477.08 733.17,476.10 730.67,474.67"/>
    </edge>
    <edge id=":354512_3" function="internal">
        <lane id=":354512_3_0" index="0" disallow="tram rail_urban rail rail_electric ship" speed="13.89" length="2.41" shape="737.22,477.08 736.12,476.09 735.83,475.21"/>
    </edge>
    <edge id=":354512_16" function="internal">
        <lane id=":354512_16_0" index="0" speed="13.89" length="5.89" shape="730.67,474.67 730.36,474.50 728.78,472.30 728.44,469.49"/>
    </edge>
    <edge id=":354512_17" function="internal">
        <lane id=":354512_17_0" index="0" speed="13.89" length="2.41" shape="735.83,475.21 736.36,474.46 737.70,473.82"/>
    </edge>
    <edge id=":354512_4" function="internal">
        <lane id=":354512_4_0" index="0" disallow="tram rail_urban rail rail_electric ship" speed="13.89" length="5.20" shape="735.01,470.06 735.07,471.54 735.54,472.66 736.42,473.42 737.70,473.82"/>
    </edge>
    <edge id=":354512_5" function="internal">
        <lane id=":354512_5_0" index="0" disallow="tram rail_urban rail rail_electric ship" speed="13.89" length="10.36" shape="735.01,470.06 734.25,472.97 732.98,474.80 731.76,476.62 731.13,479.49"/>
    </edge>
    <edge id=":354512_6" function="internal">
        <lane id=":354512_6_0" index="0" disallow="tram rail_urban rail rail_electric ship" speed="13.89" length="6.38" shape="731.72,469.78 730.89,472.49 728.93,474.33 728.11,474.59"/>
    </edge>
    <edge id=":354512_7" function="internal">
        <lane id=":354512_7_0" index="0" disallow="tram rail_urban rail rail_electric ship" speed="13.89" length="2.73" shape="731.72,469.78 730.79,470.94 729.94,471.28 729.66,471.11"/>
    </edge>
    <edge id=":354512_18" function="internal">
        <lane id=":354512_18_0" index="0" speed="13.89" length="6.60" shape="728.11,474.59 725.84,475.30 721.63,475.41"/>
    </edge>
    <edge id=":354512_19" function="internal">
        <lane id=":354512_19_0" index="0" speed="13.89" length="2.09" shape="729.66,471.11 729.15,470.80 728.44,469.49"/>
    </edge>
    <edge id=":354512_8" function="internal">
        <lane id=":354512_8_0" index="0" disallow="tram rail_urban rail rail_electric ship" speed="13.89" length="7.80" shape="721.85,472.12 724.63,472.12 726.66,471.68 727.92,470.80 728.44,469.49"/>
    </edge>
    <edge id=":354512_9" function="internal">
        <lane id=":354512_9_0" index="0" disallow="tram rail_urban rail rail_electric ship" speed="13.89" length="15.94" shape="721.85,472.12 737.70,473.82"/>
    </edge>
    <edge id=":354512_10" function="internal">
        <lane id=":354512_10_0" index="0" disallow="tram rail_urban rail rail_electric ship" speed="13.89" length="7.90" shape="721.85,472.12 726.01,472.82 728.94,474.29 729.19,474.61"/>
    </edge>
    <edge id=":354512_11" function="internal">
        <lane id=":354512_11_0" index="0" disallow="tram rail_urban rail rail_electric ship" speed="13.89" length="2.53" shape="721.85,472.12 723.03,473.03 723.39,473.88 723.32,473.99"/>
    </edge>
    <edge id=":354512_20" function="internal">
        <lane id=":354512_20_0" index="0" speed="13.89" length="5.41" shape="729.19,474.61 730.65,476.51 731.13,479.49"/>
    </edge>
    <edge id=":354512_21" function="internal">
        <lane id=":354512_21_0" index="0" speed="13.89" length="2.29" shape="723.32,473.99 722.92,474.67 721.63,475.41"/>
    </edge>
    <edge id=":354512_12" function="internal">
        <lane id=":354512_12_0" index="0" disallow="tram rail_urban rail rail_electric ship" speed="13.89" length="5.43" shape="724.54,479.24 724.41,477.64 723.88,476.47 722.95,475.73 721.63,475.41"/>
    </edge>
    <edge id=":354512_13" function="internal">
        <lane id=":354512_13_0" index="0" disallow="tram rail_urban rail rail_electric ship" speed="13.89" length="10.66" shape="724.54,479.24 725.17,476.20 726.40,474.27 727.67,472.38 728.44,469.49"/>
    </edge>
    <edge id=":354512_14" function="internal">
        <lane id=":354512_14_0" index="0" disallow="tram rail_urban rail rail_electric ship" speed="13.89" length="6.78" shape="727.83,479.36 728.55,476.41 730.43,474.50 731.45,474.21"/>
    </edge>
    <edge id=":354512_15" function="internal">
        <lane id=":354512_15_0" index="0" disallow="tram rail_urban rail rail_electric ship" speed="13.89" length="2.74" shape="727.83,479.36 728.70,478.16 729.54,477.78 729.83,477.93"/>
    </edge>
    <edge id=":354512_22" function="internal">
        <lane id=":354512_22_0" index="0" speed="13.89" length="6.34" shape="731.45,474.21 733.48,473.64 737.70,473.82"/>
    </edge>
    <edge id=":354512_23" function="internal">
        <lane id=":354512_23_0" index="0" speed="13.89" length="2.08" shape="729.83,477.93 730.35,478.22 731.13,479.49"/>
    </edge>
    <edge id=":3777434687_0" function="internal">
        <lane id=":3777434687_0_0" index="0" disallow="tram rail_urban rail rail_electric ship" speed="13.89" length="4.82" shape="0.46,422.36 -0.96,421.91 -1.59,421.24 -1.42,420.33 -0.46,419.19"/>
    </edge>
    <edge id=":385108149_0" function="internal">
        <lane id=":385108149_0_0" index="0" disallow="tram rail_urban rail rail_electric ship" speed="13.89" length="4.82" shape="760.79,775.45 760.26,776.84 759.56,777.43 758.66,777.22 757.57,776.20"/>
    </edge>
    <edge id=":397695_0" function="internal">
        <lane id=":397695_0_0" index="0" disallow="tram rail_urban rail rail_electric ship" speed="13.89" length="9.48" shape="601.32,462.88 591.89,461.89"/>
    </edge>
    <edge id=":397695_1" function="internal">
        <lane id=":397695_1_0" index="0" allow="delivery bicycle pedestrian" speed="9.72" length="5.33" shape="601.32,462.88 598.46,462.15 596.59,460.68"/>
    </edge>
    <edge id=":397695_2" function="internal">
        <lane id=":397695_2_0" index="0" disallow="tram rail_urban rail rail_electric ship" speed="13.89" length="2.41" shape="601.32,462.88 600.18,461.93 599.86,461.06"/>
    </edge>
    <edge id=":397695_9" function="internal">
        <lane id=":397695_9_0" index="0" speed="9.72" length="5.33" shape="596.59,460.68 595.70,458.47 595.79,455.52"/>
    </edge>
    <edge id=":397695_10" function="internal">
        <lane id=":397695_10_0" index="0" speed="13.89" length="2.41" shape="599.86,461.06 600.35,460.29 601.67,459.60"/>
    </edge>
    <edge id=":397695_3" function="internal">