<?xml version="1.0" encoding="UTF-8"?>
<!-- generated on 2017-11-09 21:32:44.537103 by $Id: route2trips.py 26301 2017-10-02 20:48:38Z behrisch $ via randomTrips.py
  options: 
-->
<routes xmlns:xsi="http://www.w3.org/2001/XMLSchema-instance" xsi:noNamespaceSchemaLocation="http://sumo.dlr.de/xsd/routes_file.xsd">
    <vType id="passenger" speedFactor="normc(1.00,0.10,0.20,2.00)" vClass="passenger">
    </vType>
    <trip id="veh0" depart="0.00" departLane="best" from="33708057#0" to="-138139938#0" type="passenger"/>
    <trip id="veh1" depart="163.71" departLane="best" from="-35202667#2" to="-35202667#0" type="passenger"/>
    <trip id="veh2" depart="327.42" departLane="best" from="33708057#3" to="35202667#2" type="passenger"/>
    <trip id="veh3" depart="491.13" departLane="best" from="374366365#0" to="-33708057#1" type="passenger"/>
    <trip id="veh4" depart="654.84" departLane="best" from="-374366365#4" to="-33708057#1" type="passenger"/>
    <trip id="veh5" depart="818.55" departLane="best" from="33708057#0" to="138139938#2" type="passenger"/>
    <trip id="veh6" depart="982.26" departLane="best" from="374366365#0" to="-138139938#0" type="passenger"/>
    <trip id="veh7" depart="1145.97" departLane="best" from="374366365#0" to="35202667#2" type="passenger"/>
    <trip id="veh8" depart="1309.68" departLane="best" from="-35202667#2" to="-33708057#2" type="passenger"/>
    <trip id="veh9" depart="1473.39" departLane="best" from="374366365#4" to="-374366365#2" type="passenger"/>
    <trip id="veh10" depart="1637.10" departLane="best" from="-138139938#2" to="-33708057#1" type="passenger"/>
    <trip id="veh11" depart="1800.81" departLane="best" from="374366365#0" to="33708057#3" type="passenger"/>
    <trip id="veh12" depart="1964.52" departLane="best" from="374366365#0" to="35202667#2" type="passenger"/>
    <trip id="veh13" depart="2128.23" departLane="best" from="-35202667#2" to="138139938#2" type="passenger"/>
    <trip id="veh14" depart="2291.94" departLane="best" from="374366365#0" to="35202667#0" type="passenger"/>
    <trip id="veh15" depart="2455.64" departLane="best" from="374366365#0" to="33708057#2" type="passenger"/>
    <trip id="veh16" depart="2619.35" departLane="best" from="-35202667#0" to="-374366365#2" type="passenger"/>
    <trip id="veh17" depart="2783.06" departLane="best" from="-138139938#2" to="-374366365#2" type="passenger"/>
    <trip id="veh18" depart="2946.77" departLane="best" from="33708057#0" to="-374366365#2" type="passenger"/>
    <trip id="veh19" depart="3110.48" departLane="best" from="-35202667#2" to="-35202667#0" type="passenger"/>
    <trip id="veh20" depart="3274.19" departLane="best" from="-35202667#2" to="462149208" type="passenger"/>
    <trip id="veh21" depart="3437.90" departLane="best" from="33708057#0" to="33708057#3" type="passenger"/>
</routes>
