<?xml version="1.0" encoding="UTF-8"?>
<!-- generated on 2017-11-09 21:34:06.470668 by $Id: route2trips.py 26301 2017-10-02 20:48:38Z behrisch $ via randomTrips.py
  options: 
-->
<routes xmlns:xsi="http://www.w3.org/2001/XMLSchema-instance" xsi:noNamespaceSchemaLocation="http://sumo.dlr.de/xsd/routes_file.xsd">
    <vType id="passenger" speedFactor="normc(1.00,0.10,0.20,2.00)" vClass="passenger">
    </vType>
    <trip id="veh0" depart="0.00" departLane="best" from="33708057#0" to="-138139938#0" type="passenger"/>
    <trip id="veh1" depart="102.32" departLane="best" from="-35202667#2" to="-35202667#0" type="passenger"/>
    <trip id="veh2" depart="204.64" departLane="best" from="33708057#3" to="35202667#2" type="passenger"/>
    <trip id="veh3" depart="306.96" departLane="best" from="374366365#0" to="-33708057#1" type="passenger"/>
    <trip id="veh4" depart="409.27" departLane="best" from="-374366365#4" to="-33708057#1" type="passenger"/>
    <trip id="veh5" depart="511.59" departLane="best" from="33708057#0" to="138139938#2" type="passenger"/>
    <trip id="veh6" depart="613.91" departLane="best" from="374366365#0" to="-138139938#0" type="passenger"/>
    <trip id="veh7" depart="716.23" departLane="best" from="374366365#0" to="35202667#2" type="passenger"/>
    <trip id="veh8" depart="818.55" departLane="best" from="-35202667#2" to="-33708057#2" type="passenger"/>
    <trip id="veh9" depart="920.87" departLane="best" from="374366365#4" to="-374366365#2" type="passenger"/>
    <trip id="veh10" depart="1023.19" departLane="best" from="-138139938#2" to="-33708057#1" type="passenger"/>
    <trip id="veh11" depart="1125.50" departLane="best" from="374366365#0" to="33708057#3" type="passenger"/>
    <trip id="veh12" depart="1227.82" departLane="best" from="374366365#0" to="35202667#2" type="passenger"/>
    <trip id="veh13" depart="1330.14" departLane="best" from="-35202667#2" to="138139938#2" type="passenger"/>
    <trip id="veh14" depart="1432.46" departLane="best" from="374366365#0" to="35202667#0" type="passenger"/>
    <trip id="veh15" depart="1534.78" departLane="best" from="374366365#0" to="33708057#2" type="passenger"/>
    <trip id="veh16" depart="1637.10" departLane="best" from="-35202667#0" to="-374366365#2" type="passenger"/>
    <trip id="veh17" depart="1739.42" departLane="best" from="-138139938#2" to="-374366365#2" type="passenger"/>
    <trip id="veh18" depart="1841.73" departLane="best" from="33708057#0" to="-374366365#2" type="passenger"/>
    <trip id="veh19" depart="1944.05" departLane="best" from="-35202667#2" to="-35202667#0" type="passenger"/>
    <trip id="veh20" depart="2046.37" departLane="best" from="-35202667#2" to="462149208" type="passenger"/>
    <trip id="veh21" depart="2148.69" departLane="best" from="33708057#0" to="33708057#3" type="passenger"/>
    <trip id="veh22" depart="2251.01" departLane="best" from="-33708057#2" to="35202667#2" type="passenger"/>
    <trip id="veh23" depart="2353.33" departLane="best" from="-33708057#2" to="-374366365#2" type="passenger"/>
    <trip id="veh24" depart="2455.64" departLane="best" from="-462149208" to="35202667#2" type="passenger"/>
    <trip id="veh25" depart="2557.96" departLane="best" from="374366365#0" to="35202667#2" type="passenger"/>
    <trip id="veh26" depart="2660.28" departLane="best" from="-35202667#0" to="-33708057#1" type="passenger"/>
    <trip id="veh27" depart="2762.60" departLane="best" from="-35202667#2" to="-374366365#2" type="passenger"/>
    <trip id="veh28" depart="2864.92" departLane="best" from="33708057#0" to="-374366365#3" type="passenger"/>
    <trip id="veh29" depart="2967.24" departLane="best" from="374366365#0" to="138139938#2" type="passenger"/>
    <trip id="veh30" depart="3069.56" departLane="best" from="-35202667#2" to="-35202667#1" type="passenger"/>
    <trip id="veh31" depart="3171.87" departLane="best" from="-462149208" to="-374366365#2" type="passenger"/>
    <trip id="veh32" depart="3274.19" departLane="best" from="33708057#0" to="462149208" type="passenger"/>
    <trip id="veh33" depart="3376.51" departLane="best" from="-138139938#2" to="-33708057#1" type="passenger"/>
    <trip id="veh34" depart="3478.83" departLane="best" from="-138139938#2" to="-374366365#2" type="passenger"/>
    <trip id="veh35" depart="3581.15" departLane="best" from="-138139938#0" to="35202667#2" type="passenger"/>
</routes>
