<?xml version="1.0" encoding="UTF-8"?>

<!-- generated on Mon 09 Apr 2018 03:35:43 PM IST by Netedit Version 0.30.0
<?xml version="1.0" encoding="UTF-8"?>

<configuration xmlns:xsi="http://www.w3.org/2001/XMLSchema-instance" xsi:noNamespaceSchemaLocation="http://sumo.dlr.de/xsd/netconvertConfiguration.xsd">

    <input>
        <sumo-net-file value="osm.net.xml"/>
    </input>

    <output>
        <output-file value="osm.net.xml"/>
        <output.street-names value="true"/>
    </output>

    <processing>
        <no-turnarounds value="true"/>
        <offset.disable-normalization value="true"/>
        <lefthand value="false"/>
        <junctions.corner-detail value="5"/>
        <rectangular-lane-cut value="false"/>
    </processing>

</configuration>
-->

<net version="0.27" junctionCornerDetail="5" xmlns:xsi="http://www.w3.org/2001/XMLSchema-instance" xsi:noNamespaceSchemaLocation="http://sumo.dlr.de/xsd/net_file.xsd">

    <location netOffset="-533219.54,-5748329.09" convBoundary="0.00,0.00,965.34,775.83" origBoundary="-8.517303,51.884699,-8.503274,51.891671" projParameter="+proj=utm +zone=29 +ellps=WGS84 +datum=WGS84 +units=m +no_defs"/>

    <type id="highway.bridleway" priority="1" numLanes="1" speed="2.78" allow="pedestrian" oneway="1" width="2.00"/>
    <type id="highway.bus_guideway" priority="1" numLanes="1" speed="8.33" allow="bus" oneway="1"/>
    <type id="highway.cycleway" priority="1" numLanes="1" speed="5.56" allow="bicycle" oneway="0" width="1.00"/>
    <type id="highway.footway" priority="1" numLanes="1" speed="2.78" allow="pedestrian" oneway="1" width="2.00"/>
    <type id="highway.ford" priority="1" numLanes="1" speed="2.78" allow="army" oneway="0"/>
    <type id="highway.living_street" priority="3" numLanes="1" speed="2.78" disallow="tram rail_urban rail rail_electric ship" oneway="0"/>
    <type id="highway.motorway" priority="13" numLanes="2" speed="44.44" allow="private emergency authority army vip passenger hov taxi bus coach delivery truck trailer motorcycle evehicle custom1 custom2" oneway="1"/>
    <type id="highway.motorway_link" priority="12" numLanes="1" speed="22.22" allow="private emergency authority army vip passenger hov taxi bus coach delivery truck trailer motorcycle evehicle custom1 custom2" oneway="1"/>
    <type id="highway.path" priority="1" numLanes="1" speed="2.78" allow="bicycle pedestrian" oneway="1" width="2.00"/>
    <type id="highway.pedestrian" priority="1" numLanes="1" speed="2.78" allow="pedestrian" oneway="1" width="2.00"/>
    <type id="highway.primary" priority="9" numLanes="2" speed="27.78" disallow="tram rail_urban rail rail_electric ship" oneway="0"/>
    <type id="highway.primary_link" priority="8" numLanes="1" speed="22.22" disallow="tram rail_urban rail rail_electric ship" oneway="0"/>
    <type id="highway.raceway" priority="14" numLanes="2" speed="83.33" allow="vip" oneway="0"/>
    <type id="highway.residential" priority="4" numLanes="1" speed="13.89" disallow="tram rail_urban rail rail_electric ship" oneway="0"/>
    <type id="highway.secondary" priority="7" numLanes="2" speed="27.78" disallow="tram rail_urban rail rail_electric ship" oneway="0"/>
    <type id="highway.secondary_link" priority="6" numLanes="1" speed="22.22" disallow="tram rail_urban rail rail_electric ship" oneway="0"/>
    <type id="highway.service" priority="2" numLanes="1" speed="5.56" allow="delivery bicycle pedestrian" oneway="0"/>
    <type id="highway.services" priority="1" numLanes="1" speed="8.33" disallow="tram rail_urban rail rail_electric ship" oneway="0"/>
    <type id="highway.stairs" priority="1" numLanes="1" speed="1.39" allow="pedestrian" oneway="1" width="2.00"/>
    <type id="highway.step" priority="1" numLanes="1" speed="1.39" allow="pedestrian" oneway="1" width="2.00"/>
    <type id="highway.steps" priority="1" numLanes="1" speed="1.39" allow="pedestrian" oneway="1" width="2.00"/>
    <type id="highway.tertiary" priority="6" numLanes="1" speed="22.22" disallow="tram rail_urban rail rail_electric ship" oneway="0"/>
    <type id="highway.tertiary_link" priority="5" numLanes="1" speed="22.22" disallow="tram rail_urban rail rail_electric ship" oneway="0"/>
    <type id="highway.track" priority="1" numLanes="1" speed="5.56" disallow="tram rail_urban rail rail_electric ship" oneway="0"/>
    <type id="highway.trunk" priority="11" numLanes="2" speed="27.78" disallow="tram rail_urban rail rail_electric bicycle pedestrian ship" oneway="0"/>
    <type id="highway.trunk_link" priority="10" numLanes="1" speed="22.22" disallow="tram rail_urban rail rail_electric bicycle pedestrian ship" oneway="0"/>
    <type id="highway.unclassified" priority="5" numLanes="1" speed="13.89" disallow="tram rail_urban rail rail_electric ship" oneway="0"/>
    <type id="highway.unsurfaced" priority="1" numLanes="1" speed="8.33" disallow="tram rail_urban rail rail_electric ship" oneway="0"/>
    <type id="railway.light_rail" priority="15" numLanes="1" speed="27.78" allow="rail_urban" oneway="1"/>
    <type id="railway.preserved" priority="15" numLanes="1" speed="27.78" allow="rail" oneway="1"/>
    <type id="railway.rail" priority="15" numLanes="1" speed="83.33" allow="rail rail_electric" oneway="1"/>
    <type id="railway.subway" priority="15" numLanes="1" speed="27.78" allow="rail_urban" oneway="1"/>
    <type id="railway.tram" priority="15" numLanes="1" speed="13.89" allow="tram" oneway="1"/>

    <edge id=":1846194842_0" function="internal">
        <lane id=":1846194842_0_0" index="0" allow="delivery bicycle pedestrian" speed="5.56" length="5.62" shape="622.33,429.54 621.10,429.91 620.15,430.71 619.48,431.93 619.07,433.59"/>
    </edge>
    <edge id=":1846194842_1" function="internal">
        <lane id=":1846194842_1_0" index="0" allow="delivery bicycle pedestrian" speed="5.56" length="9.33" shape="622.33,429.54 619.57,429.83 617.68,429.93 615.78,429.88 613.02,429.74"/>
    </edge>
    <edge id=":1846194842_2" function="internal">
        <lane id=":1846194842_2_0" index="0" allow="delivery bicycle pedestrian" speed="5.56" length="4.82" shape="622.33,429.54 621.01,428.86 620.51,428.09 620.82,427.22 621.96,426.26"/>
    </edge>
    <edge id=":1846194842_3" function="internal">
        <lane id=":1846194842_3_0" index="0" allow="delivery bicycle pedestrian" speed="5.56" length="8.80" shape="613.18,426.45 615.79,426.58 617.58,426.62 619.37,426.53 621.96,426.26"/>
    </edge>
    <edge id=":1846194842_4" function="internal">
        <lane id=":1846194842_4_0" index="0" allow="delivery bicycle pedestrian" speed="5.56" length="10.79" shape="613.18,426.45 616.12,427.02 618.08,428.41 619.07,430.59 619.07,433.59"/>
    </edge>
    <edge id=":1846194842_5" function="internal">
        <lane id=":1846194842_5_0" index="0" allow="delivery bicycle pedestrian" speed="5.56" length="4.82" shape="613.18,426.45 614.38,427.33 614.75,428.18 614.29,428.98 613.02,429.74"/>
    </edge>
    <edge id=":1846194842_6" function="internal">
        <lane id=":1846194842_6_0" index="0" allow="delivery bicycle pedestrian" speed="5.56" length="5.11" shape="615.81,433.13 615.80,431.71 615.34,430.67 614.41,430.02 613.02,429.74"/>
    </edge>
    <edge id=":1846194842_7" function="internal">
        <lane id=":1846194842_7_0" index="0" allow="delivery bicycle pedestrian" speed="5.56" length="10.01" shape="615.81,433.13 616.52,430.34 617.79,428.27 619.60,426.91 621.96,426.26"/>
    </edge>
    <edge id=":1846194842_8" function="internal">
        <lane id=":1846194842_8_0" index="0" allow="delivery bicycle pedestrian" speed="5.56" length="4.82" shape="615.81,433.13 616.80,432.02 617.67,431.72 618.43,432.25 619.07,433.59"/>
    </edge>
    <edge id=":1846194849_0" function="internal">
        <lane id=":1846194849_0_0" index="0" disallow="tram rail_urban rail rail_electric ship" speed="9.73" length="5.02" shape="732.27,543.07 730.91,543.25 729.92,543.82 729.32,544.78 729.10,546.13"/>
    </edge>
    <edge id=":1846194849_1" function="internal">
        <lane id=":1846194849_1_0" index="0" disallow="tram rail_urban rail rail_electric ship" speed="9.73" length="10.34" shape="732.27,543.07 729.47,542.64 727.48,541.41 726.31,539.40 725.95,536.58"/>
    </edge>
    <edge id=":1846194849_2" function="internal">
        <lane id=":1846194849_2_0" index="0" allow="delivery bicycle pedestrian" speed="5.56" length="4.82" shape="732.27,543.07 731.05,542.23 730.64,541.40 731.06,540.58 732.31,539.77"/>
    </edge>
    <edge id=":1846194849_3" function="internal">
        <lane id=":1846194849_3_0" index="0" allow="delivery bicycle pedestrian" speed="9.73" length="5.00" shape="729.25,536.63 729.42,537.99 729.99,538.97 730.95,539.56 732.31,539.77"/>
    </edge>
    <edge id=":1846194849_4" function="internal">
        <lane id=":1846194849_4_0" index="0" disallow="tram rail_urban rail rail_electric ship" speed="13.89" length="9.50" shape="729.25,536.63 729.10,546.13"/>
    </edge>
    <edge id=":1846194849_5" function="internal">
        <lane id=":1846194849_5_0" index="0" disallow="tram rail_urban rail rail_electric ship" speed="13.89" length="2.41" shape="729.25,536.63 728.41,537.86 727.58,538.26"/>
    </edge>
    <edge id=":1846194849_10" function="internal">
        <lane id=":1846194849_10_0" index="0" speed="13.89" length="2.41" shape="727.58,538.26 726.76,537.83 725.95,536.58"/>
    </edge>
    <edge id=":1846194849_6" function="internal">
        <lane id=":1846194849_6_0" index="0" disallow="tram rail_urban rail rail_electric ship" speed="13.89" length="9.49" shape="722.50,546.02 722.65,536.54"/>
        <lane id=":1846194849_6_1" index="1" disallow="tram rail_urban rail rail_electric ship" speed="13.89" length="9.49" shape="725.80,546.07 725.95,536.58"/>
    </edge>
    <edge id=":1846194849_8" function="internal">
        <lane id=":1846194849_8_0" index="0" allow="delivery bicycle pedestrian" speed="9.73" length="5.26" shape="725.80,546.07 726.25,543.29 727.48,541.31 727.58,541.26"/>
    </edge>
    <edge id=":1846194849_9" function="internal">
        <lane id=":1846194849_9_0" index="0" disallow="tram rail_urban rail rail_electric ship" speed="13.89" length="2.41" shape="725.80,546.07 726.65,544.85 727.48,544.45"/>
    </edge>
    <edge id=":1846194849_11" function="internal">
        <lane id=":1846194849_11_0" index="0" speed="9.73" length="5.06" shape="727.58,541.26 729.50,540.14 732.31,539.77"/>
    </edge>
    <edge id=":1846194849_12" function="internal">
        <lane id=":1846194849_12_0" index="0" speed="13.89" length="2.41" shape="727.48,544.45 728.30,544.88 729.10,546.13"/>
    </edge>
    <edge id=":1846194954_0" function="internal">
        <lane id=":1846194954_0_0" index="0" disallow="tram rail_urban rail rail_electric ship" speed="13.89" length="9.63" shape="618.05,464.70 608.48,463.66"/>
    </edge>
    <edge id=":1846194954_1" function="internal">
        <lane id=":1846194954_1_0" index="0" allow="delivery bicycle pedestrian" speed="9.73" length="4.56" shape="618.05,464.70 615.24,463.77 614.19,462.57"/>
    </edge>
    <edge id=":1846194954_2" function="internal">
        <lane id=":1846194954_2_0" index="0" disallow="tram rail_urban rail rail_electric ship" speed="13.89" length="2.41" shape="618.05,464.70 616.91,463.75 616.59,462.88"/>
    </edge>
    <edge id=":1846194954_9" function="internal">
        <lane id=":1846194954_9_0" index="0" speed="9.73" length="8.77" shape="614.19,462.57 613.43,461.71 612.63,458.52 612.82,454.19"/>
    </edge>
    <edge id=":1846194954_10" function="internal">
        <lane id=":1846194954_10_0" index="0" speed="13.89" length="2.41" shape="616.59,462.88 617.09,462.11 618.41,461.42"/>
    </edge>
    <edge id=":1846194954_3" function="internal">
        <lane id=":1846194954_3_0" index="0" disallow="tram rail_urban rail rail_electric ship" speed="9.73" length="5.04" shape="616.08,454.67 616.09,456.06 616.53,457.10 617.43,457.80 618.77,458.14"/>
    </edge>
    <edge id=":1846194954_4" function="internal">
        <lane id=":1846194954_4_0" index="0" disallow="tram rail_urban rail rail_electric ship" speed="9.73" length="13.16" shape="616.08,454.67 615.10,458.86 613.50,461.75 611.29,463.35 608.48,463.66"/>
    </edge>
    <edge id=":1846194954_5" function="internal">
        <lane id=":1846194954_5_0" index="0" allow="delivery bicycle pedestrian" speed="5.56" length="4.82" shape="616.08,454.67 615.09,455.77 614.21,456.06 613.46,455.53 612.82,454.19"/>
    </edge>
    <edge id=":1846194954_6" function="internal">
        <lane id=":1846194954_6_0" index="0" allow="delivery bicycle pedestrian" speed="9.73" length="8.06" shape="608.84,460.38 610.23,460.12 611.36,459.00 612.22,457.02 612.82,454.19"/>
    </edge>
    <edge id=":1846194954_7" function="internal">
        <lane id=":1846194954_7_0" index="0" disallow="tram rail_urban rail rail_electric ship" speed="13.89" length="9.63" shape="608.84,460.38 618.41,461.42"/>
    </edge>
    <edge id=":1846194954_8" function="internal">
        <lane id=":1846194954_8_0" index="0" disallow="tram rail_urban rail rail_electric ship" speed="13.89" length="2.41" shape="608.84,460.38 609.98,461.33 610.30,462.20"/>
    </edge>
    <edge id=":1846194954_11" function="internal">
        <lane id=":1846194954_11_0" index="0" speed="13.89" length="2.41" shape="610.30,462.20 609.80,462.98 608.48,463.66"/>
    </edge>
    <edge id=":1846195053_0" function="internal">
        <lane id=":1846195053_0_0" index="0" allow="delivery bicycle pedestrian" speed="5.56" length="4.82" shape="805.39,462.37 804.40,463.49 803.53,463.79 802.77,463.27 802.11,461.93"/>
    </edge>
    <edge id=":1846195132_0" function="internal">
        <lane id=":1846195132_0_0" index="0" disallow="tram rail_urban rail rail_electric ship" speed="13.89" length="9.50" shape="737.44,407.81 737.38,417.30"/>
        <lane id=":1846195132_0_1" index="1" disallow="tram rail_urban rail rail_electric ship" speed="13.89" length="9.50" shape="734.14,407.78 734.08,417.28"/>
    </edge>
    <edge id=":1846195132_2" function="internal">
        <lane id=":1846195132_2_0" index="0" allow="delivery bicycle pedestrian" speed="9.73" length="5.27" shape="734.14,407.78 733.72,410.57 732.51,412.56 732.41,412.62"/>
    </edge>
    <edge id=":1846195132_3" function="internal">
        <lane id=":1846195132_3_0" index="0" disallow="tram rail_urban rail rail_electric ship" speed="13.89" length="2.41" shape="734.14,407.78 733.31,409.02 732.48,409.42"/>
    </edge>
    <edge id=":1846195132_10" function="internal">
        <lane id=":1846195132_10_0" index="0" speed="9.73" length="5.05" shape="732.41,412.62 730.50,413.76 727.69,414.14"/>
    </edge>
    <edge id=":1846195132_11" function="internal">
        <lane id=":1846195132_11_0" index="0" speed="13.89" length="2.41" shape="732.48,409.42 731.66,409.00 730.84,407.76"/>
    </edge>
    <edge id=":1846195132_4" function="internal">
        <lane id=":1846195132_4_0" index="0" disallow="tram rail_urban rail rail_electric ship" speed="9.73" length="5.01" shape="727.70,410.84 729.07,410.66 730.05,410.08 730.64,409.11 730.84,407.76"/>
    </edge>
    <edge id=":1846195132_5" function="internal">
        <lane id=":1846195132_5_0" index="0" disallow="tram rail_urban rail rail_electric ship" speed="9.73" length="10.34" shape="727.70,410.84 730.51,411.25 732.51,412.46 733.70,414.47 734.08,417.28"/>
    </edge>
    <edge id=":1846195132_6" function="internal">
        <lane id=":1846195132_6_0" index="0" allow="delivery bicycle pedestrian" speed="5.56" length="4.82" shape="727.70,410.84 728.94,411.67 729.35,412.50 728.93,413.32 727.69,414.14"/>
    </edge>
    <edge id=":1846195132_7" function="internal">
        <lane id=":1846195132_7_0" index="0" allow="delivery bicycle pedestrian" speed="9.73" length="5.00" shape="730.78,417.26 730.59,415.90 730.02,414.93 729.05,414.34 727.69,414.14"/>
    </edge>
    <edge id=":1846195132_8" function="internal">
        <lane id=":1846195132_8_0" index="0" disallow="tram rail_urban rail rail_electric ship" speed="13.89" length="9.50" shape="730.78,417.26 730.84,407.76"/>
    </edge>
    <edge id=":1846195132_9" function="internal">
        <lane id=":1846195132_9_0" index="0" disallow="tram rail_urban rail rail_electric ship" speed="13.89" length="2.41" shape="730.78,417.26 731.61,416.03 732.44,415.62"/>
    </edge>
    <edge id=":1846195132_12" function="internal">
        <lane id=":1846195132_12_0" index="0" speed="13.89" length="2.41" shape="732.44,415.62 733.26,416.04 734.08,417.28"/>
    </edge>
    <edge id=":1846195140_0" function="internal">
        <lane id=":1846195140_0_0" index="0" allow="delivery bicycle pedestrian" speed="5.56" length="4.91" shape="605.60,429.37 604.27,429.48 603.27,429.99 602.59,430.89 602.24,432.17"/>
    </edge>
    <edge id=":1846195140_1" function="internal">
        <lane id=":1846195140_1_0" index="0" allow="delivery bicycle pedestrian" speed="5.56" length="4.82" shape="605.60,429.37 604.40,428.48 604.03,427.63 604.49,426.83 605.77,426.07"/>
    </edge>
    <edge id=":1846195140_2" function="internal">
        <lane id=":1846195140_2_0" index="0" allow="delivery bicycle pedestrian" speed="5.56" length="6.09" shape="601.65,422.68 601.79,424.08 602.53,425.11 603.85,425.77 605.77,426.07"/>
    </edge>
    <edge id=":1846195140_3" function="internal">
        <lane id=":1846195140_3_0" index="0" allow="delivery bicycle pedestrian" speed="5.56" length="9.55" shape="601.65,422.68 601.63,425.50 602.00,427.43 602.34,429.37 602.24,432.17"/>
    </edge>
    <edge id=":1846195140_4" function="internal">
        <lane id=":1846195140_4_0" index="0" allow="delivery bicycle pedestrian" speed="5.56" length="9.94" shape="598.97,431.75 599.68,429.15 601.05,427.34 603.08,426.31 605.77,426.07"/>
    </edge>
    <edge id=":1846195140_5" function="internal">
        <lane id=":1846195140_5_0" index="0" allow="delivery bicycle pedestrian" speed="5.56" length="4.82" shape="598.97,431.75 599.94,430.63 600.81,430.32 601.58,430.84 602.24,432.17"/>
    </edge>
    <edge id=":1846195158_0" function="internal">
        <lane id=":1846195158_0_0" index="0" disallow="tram rail_urban rail rail_electric ship" speed="13.89" length="9.52" shape="722.59,617.35 722.00,607.84"/>
        <lane id=":1846195158_0_1" index="1" disallow="tram rail_urban rail rail_electric ship" speed="13.89" length="9.52" shape="725.88,617.13 725.30,607.63"/>
    </edge>
    <edge id=":1846195158_2" function="internal">
        <lane id=":1846195158_2_0" index="0" allow="delivery bicycle pedestrian" speed="9.73" length="5.33" shape="725.88,617.13 726.10,614.28 727.18,612.19 727.28,612.13"/>
    </edge>
    <edge id=":1846195158_3" function="internal">
        <lane id=":1846195158_3_0" index="0" disallow="tram rail_urban rail rail_electric ship" speed="13.89" length="2.41" shape="725.88,617.13 726.62,615.84 727.42,615.37"/>
    </edge>
    <edge id=":1846195158_10" function="internal">
        <lane id=":1846195158_10_0" index="0" speed="9.73" length="5.08" shape="727.28,612.13 729.13,610.88 731.93,610.34"/>
    </edge>
    <edge id=":1846195158_11" function="internal">
        <lane id=":1846195158_11_0" index="0" speed="13.89" length="2.41" shape="727.42,615.37 728.27,615.73 729.17,616.91"/>
    </edge>
    <edge id=":1846195158_4" function="internal">
        <lane id=":1846195158_4_0" index="0" disallow="tram rail_urban rail rail_electric ship" speed="9.73" length="5.02" shape="732.09,613.64 730.74,613.90 729.80,614.53 729.28,615.53 729.17,616.91"/>
    </edge>
    <edge id=":1846195158_5" function="internal">
        <lane id=":1846195158_5_0" index="0" disallow="tram rail_urban rail rail_electric ship" speed="9.73" length="10.45" shape="732.09,613.64 729.12,613.38 727.00,612.30 725.73,610.38 725.30,607.63"/>
    </edge>
    <edge id=":1846195158_6" function="internal">
        <lane id=":1846195158_6_0" index="0" allow="delivery bicycle pedestrian" speed="5.56" length="4.82" shape="732.09,613.64 730.82,612.87 730.37,612.07 730.74,611.22 731.93,610.34"/>
    </edge>
    <edge id=":1846195158_7" function="internal">
        <lane id=":1846195158_7_0" index="0" allow="delivery bicycle pedestrian" speed="9.73" length="5.11" shape="728.60,607.42 728.81,608.76 729.43,609.69 730.48,610.22 731.93,610.34"/>
    </edge>
    <edge id=":1846195158_8" function="internal">
        <lane id=":1846195158_8_0" index="0" disallow="tram rail_urban rail rail_electric ship" speed="13.89" length="9.50" shape="728.60,607.42 729.17,616.91"/>
    </edge>
    <edge id=":1846195158_9" function="internal">
        <lane id=":1846195158_9_0" index="0" disallow="tram rail_urban rail rail_electric ship" speed="13.89" length="2.41" shape="728.60,607.42 727.85,608.71 727.05,609.18"/>
    </edge>
    <edge id=":1846195158_12" function="internal">
        <lane id=":1846195158_12_0" index="0" speed="13.89" length="2.41" shape="727.05,609.18 726.20,608.82 725.30,607.63"/>
    </edge>
    <edge id=":1846195172_0" function="internal">
        <lane id=":1846195172_0_0" index="0" allow="delivery bicycle pedestrian" speed="5.56" length="5.40" shape="680.44,409.70 678.89,409.64 677.82,409.90 676.84,410.49 675.54,411.43"/>
    </edge>
    <edge id=":1846195172_1" function="internal">
        <lane id=":1846195172_1_0" index="0" allow="delivery bicycle pedestrian" speed="5.56" length="8.79" shape="680.44,409.70 678.09,409.05 676.78,407.88 675.66,406.28 673.84,404.36"/>
    </edge>
    <edge id=":1846195172_2" function="internal">
        <lane id=":1846195172_2_0" index="0" allow="delivery bicycle pedestrian" speed="5.56" length="4.82" shape="680.44,409.70 679.31,408.75 678.99,407.88 679.49,407.11 680.81,406.43"/>
    </edge>
    <edge id=":1846195172_3" function="internal">
        <lane id=":1846195172_3_0" index="0" allow="delivery bicycle pedestrian" speed="5.56" length="5.36" shape="673.65,408.72 674.77,407.68 675.18,406.61 674.87,405.50 673.84,404.36"/>
    </edge>
    <edge id=":1846195172_4" function="internal">
        <lane id=":1846195172_4_0" index="0" allow="delivery bicycle pedestrian" speed="5.56" length="7.81" shape="673.65,408.72 675.55,407.40 676.99,406.61 678.55,406.30 680.81,406.43"/>
    </edge>
    <edge id=":1846195172_5" function="internal">
        <lane id=":1846195172_5_0" index="0" allow="delivery bicycle pedestrian" speed="5.56" length="4.82" shape="673.65,408.72 675.14,408.69 675.95,409.13 676.09,410.05 675.54,411.43"/>
    </edge>
    <edge id=":354512_0" function="internal">
        <lane id=":354512_0_0" index="0" disallow="tram rail_urban rail rail_electric ship" speed="13.89" length="7.12" shape="736.74,480.35 734.28,480.20 732.50,480.55 731.41,481.42 731.01,482.81"/>
    </edge>
    <edge id=":354512_1" function="internal">
        <lane id=":354512_1_0" index="0" disallow="tram rail_urban rail rail_electric ship" speed="13.89" length="15.68" shape="737.22,477.09 721.63,475.41"/>
    </edge>
    <edge id=":354512_2" function="internal">
        <lane id=":354512_2_0" index="0" disallow="tram rail_urban rail rail_electric ship" speed="13.89" length="5.94" shape="737.22,477.09 733.20,475.89 731.83,474.80"/>
    </edge>
    <edge id=":354512_12" function="internal">
        <lane id=":354512_12_0" index="0" speed="13.89" length="9.60" shape="731.83,474.80 730.44,473.68 728.95,470.45 728.72,466.20"/>
    </edge>
    <edge id=":354512_3" function="internal">
        <lane id=":354512_3_0" index="0" disallow="tram rail_urban rail rail_electric ship" speed="13.89" length="8.11" shape="735.30,466.77 735.23,469.69 735.61,471.84 736.44,473.22 737.70,473.82"/>
    </edge>
    <edge id=":354512_4" function="internal">
        <lane id=":354512_4_0" index="0" disallow="tram rail_urban rail rail_electric ship" speed="13.89" length="16.67" shape="735.30,466.77 734.35,472.06 732.96,476.02 731.66,479.36 731.01,482.81"/>
    </edge>
    <edge id=":354512_5" function="internal">
        <lane id=":354512_5_0" index="0" disallow="tram rail_urban rail rail_electric ship" speed="13.89" length="6.14" shape="732.01,466.49 731.05,470.64 729.96,472.17"/>
    </edge>
    <edge id=":354512_13" function="internal">
        <lane id=":354512_13_0" index="0" speed="13.89" length="9.41" shape="729.96,472.17 729.00,473.51 725.86,475.10 721.63,475.41"/>
    </edge>
    <edge id=":354512_6" function="internal">
        <lane id=":354512_6_0" index="0" disallow="tram rail_urban rail rail_electric ship" speed="13.89" length="7.85" shape="722.08,468.83 724.89,468.83 726.93,468.39 728.21,467.52 728.72,466.20"/>
    </edge>
    <edge id=":354512_7" function="internal">
        <lane id=":354512_7_0" index="0" disallow="tram rail_urban rail rail_electric ship" speed="13.89" length="15.94" shape="721.86,472.12 737.70,473.82"/>
    </edge>
    <edge id=":354512_8" function="internal">
        <lane id=":354512_8_0" index="0" disallow="tram rail_urban rail rail_electric ship" speed="13.89" length="6.75" shape="721.86,472.12 726.00,473.03 728.04,474.49"/>
    </edge>
    <edge id=":354512_14" function="internal">
        <lane id=":354512_14_0" index="0" speed="13.89" length="9.19" shape="728.04,474.49 728.91,475.12 730.58,478.38 731.01,482.81"/>
    </edge>
    <edge id=":354512_9" function="internal">
        <lane id=":354512_9_0" index="0" disallow="tram rail_urban rail rail_electric ship" speed="13.89" length="8.36" shape="724.41,482.56 724.34,479.51 723.85,477.30 722.95,475.94 721.63,475.41"/>
    </edge>
    <edge id=":354512_10" function="internal">
        <lane id=":354512_10_0" index="0" disallow="tram rail_urban rail rail_electric ship" speed="13.89" length="16.51" shape="727.71,482.68 728.72,466.20"/>
    </edge>
    <edge id=":354512_11" function="internal">
        <lane id=":354512_11_0" index="0" disallow="tram rail_urban rail rail_electric ship" speed="13.89" length="9.46" shape="727.71,482.68 728.48,478.28 730.40,475.33 731.73,474.69"/>
    </edge>
    <edge id=":354512_15" function="internal">
        <lane id=":354512_15_0" index="0" speed="13.89" length="6.17" shape="731.73,474.69 733.48,473.85 737.70,473.82"/>
    </edge>
    <edge id=":3777434687_0" function="internal">
        <lane id=":3777434687_0_0" index="0" disallow="tram rail_urban rail rail_electric ship" speed="13.89" length="4.82" shape="0.46,422.37 -0.96,421.92 -1.59,421.24 -1.42,420.33 -0.46,419.19"/>
    </edge>
    <edge id=":385108149_0" function="internal">
        <lane id=":385108149_0_0" index="0" disallow="tram rail_urban rail rail_electric ship" speed="13.89" length="4.82" shape="760.79,775.45 760.27,776.85 759.56,777.44 758.66,777.22 757.57,776.21"/>
    </edge>
    <edge id=":397695_0" function="internal">
        <lane id=":397695_0_0" index="0" disallow="tram rail_urban rail rail_electric ship" speed="13.89" length="9.48" shape="601.32,462.89 591.89,461.90"/>
    </edge>
    <edge id=":397695_1" function="internal">
        <lane id=":397695_1_0" index="0" allow="delivery bicycle pedestrian" speed="9.73" length="5.33" shape="601.32,462.89 598.46,462.15 596.58,460.68"/>
    </edge>
    <edge id=":397695_2" function="internal">
        <lane id=":397695_2_0" index="0" disallow="tram rail_urban rail rail_electric ship" speed="13.89" length="2.41" shape="601.32,462.89 600.17,461.93 599.85,461.07"/>
    </edge>
    <edge id=":397695_9" function="internal">
        <lane id=":397695_9_0" index="0" speed="9.73" length="5.33" shape="596.58,460.68 595.69,458.48 595.78,455.53"/>
    </edge>
    <edge id=":397695_10" function="internal">
        <lane id=":397695_10_0" index="0" speed="13.89" length="2.41" shape="599.85,461.07 600.35,460.29 601.67,459.60"/>
    </edge>
    <edge id=":397695_3" function="internal">
        <lane id=":397695_3_0" index="0" disallow="tram rail_urban rail rail_electric ship" speed="9.73" length="5.08" shape="599.04,456.10 598.99,457.50 599.42,458.56 600.31,459.26 601.67,459.60"/>
    </edge>
    <edge id=":397695_4" function="internal">
        <lane id=":397695_4_0" index="0" disallow="tram rail_urban rail rail_electric ship" speed="9.73" length="10.33" shape="599.04,456.10 598.17,458.86 596.69,460.75 594.59,461.76 591.89,461.90"/>
    </edge>
    <edge id=":397695_5" function="internal">
        <lane id=":397695_5_0" index="0" allow="delivery bicycle pedestrian" speed="5.56" length="4.82" shape="599.04,456.10 598.01,457.17 597.12,457.44 596.38,456.89 595.78,455.53"/>
    </edge>
    <edge id=":397695_6" function="internal">
        <lane id=":397695_6_0" index="0" allow="delivery bicycle pedestrian" speed="9.73" length="5.29" shape="592.22,458.61 593.56,458.53 594.60,457.99 595.34,456.99 595.78,455.53"/>
    </edge>
    <edge id=":397695_7" function="internal">
        <lane id=":397695_7_0" index="0" disallow="tram rail_urban rail rail_electric ship" speed="13.89" length="9.50" shape="592.22,458.61 601.67,459.60"/>
    </edge>
    <edge id=":397695_8" function="internal">
        <lane id=":397695_8_0" index="0" disallow="tram rail_urban rail rail_electric ship" speed="13.89" length="2.41" shape="592.22,458.61 593.37,459.56 593.69,460.42"/>
    </edge>
    <edge id=":397695_11" function="internal">
        <lane id=":397695_11_0" index="0" speed="13.89" length="2.41" shape="593.69,460.42 593.20,461.20 591.89,461.90"/>
    </edge>
    <edge id=":408195_0" function="internal">
        <lane id=":408195_0_0" index="0" disallow="tram rail_urban rail rail_electric ship" speed="13.89" length="4.82" shape="713.13,0.16 713.83,-1.15 714.61,-1.64 715.47,-1.31 716.41,-0.16"/>
    </edge>
    <edge id=":4575496409_0" function="internal">
        <lane id=":4575496409_0_0" index="0" disallow="tram rail_urban rail rail_electric ship" speed="13.89" length="9.49" shape="730.49,312.95 730.35,303.46"/>
    </edge>
    <edge id=":4575496409_1" function="internal">
        <lane id=":4575496409_1_0" index="0" disallow="tram rail_urban rail rail_electric ship" speed="13.89" length="4.50" shape="730.49,312.95 731.06,310.13 732.13,308.91"/>
    </edge>