<?xml version="1.0" encoding="UTF-8"?>

<!-- generated on Thu Nov  9 21:34:06 2017 by SUMO polyconvert Version 0.30.0
<?xml version="1.0" encoding="UTF-8"?>

<configuration xmlns:xsi="http://www.w3.org/2001/XMLSchema-instance" xsi:noNamespaceSchemaLocation="http://sumo.dlr.de/xsd/polyconvertConfiguration.xsd">

    <input>
        <net-file value="/home/kealan/College/fyp/mapdata/2017-11-09-21-34-03/osm.net.xml"/>
        <osm-files value="osm_bbox.osm.xml"/>
        <osm.keep-full-type value="true"/>
        <type-file value="/home/kealan/sumo-svn/data/typemap/osmPolyconvert.typ.xml"/>
    </input>

    <output>
        <output-file value="/home/kealan/College/fyp/mapdata/2017-11-09-21-34-03/osm.poly.xml"/>
    </output>

    <processing>
        <poi-layer-offset value="5"/>
    </processing>

    <report>
        <verbose value="true"/>
    </report>

</configuration>
-->

<additional xmlns:xsi="http://www.w3.org/2001/XMLSchema-instance" xsi:noNamespaceSchemaLocation="http://sumo.dlr.de/xsd/additional_file.xsd">
    <location netOffset="-533219.54,-5748329.09" convBoundary="-0.00,-0.00,1064.28,775.83" origBoundary="-8.517303,51.884699,-8.501862,51.891671" projParameter="+proj=utm +zone=29 +ellps=WGS84 +datum=WGS84 +units=m +no_defs"/>

    <poly id="130997231" type="leisure.recreation_ground" color="207,245,201" fill="1" layer="-2.00" shape="894.12,432.39 931.57,429.82 941.68,396.04 982.71,320.60 1021.80,259.06 1046.27,212.72 1064.28,195.76 979.35,130.56 948.06,163.18 885.34,115.46 840.88,86.75 768.22,40.41 775.06,108.91 782.69,304.09 809.48,305.37 806.70,425.61 894.12,432.39"/>
    <poly id="130997231#1" type="sport.rugby_union" color="79,230,125" fill="1" layer="-2.00" shape="894.12,432.39 931.57,429.82 941.68,396.04 982.71,320.60 1021.80,259.06 1046.27,212.72 1064.28,195.76 979.35,130.56 948.06,163.18 885.34,115.46 840.88,86.75 768.22,40.41 775.06,108.91 782.69,304.09 809.48,305.37 806.70,425.61 894.12,432.39"/>
    <poly id="130997233" type="leisure.pitch" color="207,245,201" fill="1" layer="-2.00" shape="816.60,415.54 816.95,312.64 885.91,312.88 885.55,415.78 816.60,415.54"/>
    <poly id="130997233#1" type="sport.rugby_union" color="79,230,125" fill="1" layer="-2.00" shape="816.60,415.54 816.95,312.64 885.91,312.88 885.55,415.78 816.60,415.54"/>
    <poly id="173864126" type="building.industrial" color="255,230,230" fill="1" layer="-1.00" shape="794.74,470.08 773.37,468.37 775.58,440.86 779.94,441.20 780.42,435.21 797.43,436.57 794.74,470.08"/>
    <poly id="173864134" type="building.industrial" color="255,230,230" fill="1" layer="-1.00" shape="811.27,472.59 812.95,454.01 844.18,456.83 842.50,475.40 811.27,472.59"/>
    <poly id="173864137" type="building.apartments" color="255,230,230" fill="1" layer="-1.00" shape="674.52,555.21 685.05,553.82 685.36,554.89 697.25,553.38 698.07,560.33 700.89,560.01 701.94,568.29 695.84,568.80 698.03,589.58 705.12,588.57 706.00,596.63 706.04,598.92 705.47,600.65 704.04,601.33 704.01,602.05 698.41,602.68 698.22,602.12 697.08,601.82 696.08,600.98 695.69,599.29 693.26,599.44 693.43,600.16 690.86,600.83 679.07,602.26 677.78,592.25 680.76,591.74 680.08,585.95 681.01,585.67 679.87,577.13 679.13,576.93 678.47,570.71 675.52,571.06 674.12,559.64 674.91,559.66 674.52,555.21"/>
    <poly id="173864154" type="amenity.place_of_worship" color="237,199,199" fill="1" layer="-1.00" shape="615.08,418.02 615.56,410.23 611.88,409.19 609.63,407.27 608.21,404.13 608.22,401.24 608.55,398.84 610.41,396.24 613.43,394.64 616.85,394.65 617.69,387.09 631.83,388.44 631.29,396.39 661.66,398.78 662.48,397.53 664.51,397.54 665.42,398.65 665.35,400.46 663.75,401.03 663.12,411.34 663.97,412.60 663.29,414.47 661.25,414.65 660.16,413.16 629.95,410.62 629.27,419.20 615.08,418.02"/>
    <poly id="173864154#1" type="building.yes" color="255,230,230" fill="1" layer="-1.00" shape="615.08,418.02 615.56,410.23 611.88,409.19 609.63,407.27 608.21,404.13 608.22,401.24 608.55,398.84 610.41,396.24 613.43,394.64 616.85,394.65 617.69,387.09 631.83,388.44 631.29,396.39 661.66,398.78 662.48,397.53 664.51,397.54 665.42,398.65 665.35,400.46 663.75,401.03 663.12,411.34 663.97,412.60 663.29,414.47 661.25,414.65 660.16,413.16 629.95,410.62 629.27,419.20 615.08,418.02"/>
    <poly id="173864156" type="building.office" color="255,230,230" fill="1" layer="-1.00" shape="744.50,608.33 759.26,608.81 758.57,546.19 743.63,546.09 743.61,549.04 741.94,549.03 742.66,606.48 744.26,606.46 744.50,608.33"/>
    <poly id="173958771" type="building.apartments" color="255,230,230" fill="1" layer="-1.00" shape="797.83,555.87 740.24,528.23 742.03,504.47 744.31,504.54 755.18,504.96 773.13,515.57 772.25,517.78 818.22,538.92 804.69,550.58 802.89,549.35 797.83,555.87"/>
    <poly id="173958773" type="building.apartments" color="255,230,230" fill="1" layer="-1.00" shape="742.92,493.26 758.13,504.94 792.67,507.59 847.48,507.81 853.92,501.03 862.35,492.13 848.28,491.70 807.26,490.43 783.89,488.33 756.90,486.10 743.34,485.54 742.92,493.26"/>
    <poly id="173958775" type="landuse.industrial" color="209,209,204" fill="1" layer="-3.00" shape="832.88,478.04 772.40,471.81 775.78,430.88 778.75,428.88 803.30,429.41 820.64,431.92 845.18,433.38 854.41,432.52 873.61,432.65 872.97,472.05 854.52,475.51 843.77,476.82 832.70,476.93 832.88,478.04"/>
    <poly id="366788784" type="waterway.stream" color="181,209,209" fill="0" layer="-4.00" shape="879.40,516.36 874.50,518.45 819.99,554.72 803.64,566.47 793.23,577.26 794.65,601.66 790.19,624.60"/>
    <poly id="518960071" type="amenity.parking" color="184,184,179" fill="1" layer="-1.00" shape="758.13,504.94 756.90,486.10 783.89,488.33 807.26,490.43 848.28,491.70 847.87,500.00 847.48,507.81 792.67,507.59 758.13,504.94"/>
    <poi id="3164649030" type="amenity.restaurant" color="237,199,199" layer="4.00" x="746.27" y="490.55"/>
    <poi id="3338056073" type="amenity.pharmacy" color="237,199,199" layer="4.00" x="753.61" y="422.05"/>
    <poi id="3338056076" type="amenity.doctors" color="237,199,199" layer="4.00" x="753.81" y="413.82"/>
    <poi id="3706661352" type="shop.hairdresser" color="237,199,255" layer="4.00" x="741.88" y="467.22"/>
    <poi id="4758088623" type="amenity.restaurant" color="237,199,199" layer="4.00" x="770.89" y="487.25"/>
    <poi id="5061320516" type="amenity.parking_entrance" color="237,199,199" layer="4.00" x="853.92" y="501.03"/>
    <poi id="742415656" type="shop.supermarket" color="237,199,255" layer="4.00" x="746.79" y="510.95"/>
</additional>
