<!-- additional traffic light logic for Dennehey's Cross -->
<additional>

    <tlLogic id="354512" type="actuated" programID="dynamic" offset="0">
      <!-- East West -->
      <phase duration="20"  state="GGgrrrGGgrrr"/>
      <!-- amber -->
      <phase duration="5"   state="yyyrrryyyrrr"/>
      <!-- North South -->
      <phase duration="20"  state="rrrGGgrrrGGg"/>
      <!-- amber -->
      <phase duration="5"  state="rrryyyrrryyy"/>
    </tlLogic>

</additional>
