<!-- additional traffic light logic for Dennehey's Cross -->
<additional>

    <tlLogic id="354512" programID="allred" offset="0" type="actuated">
      <phase duration="60" state="rrrrrrrrrrrrrrrr"/>
    </tlLogic>

    <tlLogic id="354512" type="actuated" programID="1" offset="0">
        <phase duration="31" state=" GGggrrrrGGgg"/>
        <phase duration="4" state="rrrryyggrrrryygg"/>
        <phase duration="6" state="rrrrrrGGrrrrrrGG"/>
        <phase duration="4" state="rrrrrryyrrrrrryy"/>
        <phase duration="31" state="GGggrrrrGGggrrrr"/>
        <phase duration="4" state="yyggrrrryyggrrrr"/>
        <phase duration="6" state="rrGGrrrrrrGGrrrr"/>
        <phase duration="4" state="rryyrrrrrryyrrrr"/>
    </tlLogic>

</additional>
