<!-- additional traffic light logic for Dennehey's Cross -->
<additional>

    <tlLogic id="354512" type="actuated" programID="dynamic" offset="0">
      <!-- East West -->
      <phase duration="20"  state="GGggrrrrGGggrrrr"/>
      <!-- amber -->
      <phase duration="5"   state="yyyyrrrryyyyrrrr"/>
      <!-- North South -->
      <phase duration="20"  state="rrrrGGggrrrrGGgg"/>
      <!-- amber -->
      <phase duration="5"  state="rrrryyyyrrrryyyy"/>
    </tlLogic>

</additional>
