<?xml version="1.0" encoding="UTF-8"?>

<!-- generated on Thu Nov  2 19:31:55 2017 by SUMO polyconvert Version 0.30.0
<?xml version="1.0" encoding="UTF-8"?>

<configuration xmlns:xsi="http://www.w3.org/2001/XMLSchema-instance" xsi:noNamespaceSchemaLocation="http://sumo.dlr.de/xsd/polyconvertConfiguration.xsd">

    <input>
        <net-file value="/home/kealan/College/fyp/mapdata/2017-11-02-19-31-52/osm.net.xml"/>
        <osm-files value="osm_bbox.osm.xml"/>
        <osm.keep-full-type value="true"/>
        <type-file value="/home/kealan/sumo-svn/data/typemap/osmPolyconvert.typ.xml"/>
    </input>

    <output>
        <output-file value="/home/kealan/College/fyp/mapdata/2017-11-02-19-31-52/osm.poly.xml"/>
    </output>

    <processing>
        <poi-layer-offset value="5"/>
    </processing>

    <report>
        <verbose value="true"/>
    </report>

</configuration>
-->

<additional xmlns:xsi="http://www.w3.org/2001/XMLSchema-instance" xsi:noNamespaceSchemaLocation="http://sumo.dlr.de/xsd/additional_file.xsd">
    <location netOffset="-530107.22,-5747428.87" convBoundary="-0.00,-43.08,6982.93,2792.92" origBoundary="-8.574442,51.876233,-8.460925,51.901592" projParameter="+proj=utm +zone=29 +ellps=WGS84 +datum=WGS84 +units=m +no_defs"/>

    <poly id="106107072" type="building.yes" color="255,230,230" fill="1" layer="-1.00" shape="4358.07,381.49 4346.46,436.71 4315.82,430.31 4319.64,417.38 4322.63,404.90 4321.25,402.91 4321.18,400.51 4322.25,398.61 4324.15,397.39 4325.32,389.95 4325.83,382.70 4342.67,386.21 4344.27,378.61 4358.07,381.49"/>
    <poly id="106107078" type="building.yes" color="255,230,230" fill="1" layer="-1.00" shape="4262.81,438.64 4257.00,466.45 4290.99,473.53 4296.81,445.69 4289.44,444.16 4290.46,439.32 4293.73,440.00 4298.10,419.05 4276.84,414.64 4272.66,435.08 4269.05,434.63 4268.85,437.29 4264.36,436.47 4263.91,438.75 4262.81,438.64"/>
    <poly id="106107086" type="building.yes" color="255,230,230" fill="1" layer="-1.00" shape="4294.31,563.98 4256.80,557.12 4256.68,557.38 4247.23,555.74 4247.22,555.38 4235.68,553.26 4241.43,521.81 4245.92,522.67 4246.29,519.79 4255.22,521.48 4254.60,524.31 4266.62,526.58 4267.63,519.57 4282.29,522.33 4281.18,529.33 4300.07,532.89 4294.31,563.98"/>
    <poly id="106107094" type="building.yes" color="255,230,230" fill="1" layer="-1.00" shape="4283.47,547.68 4278.69,546.97 4279.23,543.37 4284.01,544.10 4283.47,547.68"/>
    <poly id="106107108" type="building.yes" color="255,230,230" fill="1" layer="-1.00" shape="4254.32,411.99 4260.76,421.46 4242.87,432.53 4243.68,433.67 4235.89,439.35 4232.97,454.58 4231.89,454.36 4231.22,457.75 4235.81,458.66 4233.48,470.37 4230.38,469.76 4229.74,472.95 4232.89,473.57 4230.30,486.62 4231.40,486.84 4229.91,494.34 4228.62,494.09 4227.80,498.22 4203.31,493.38 4206.40,477.83 4215.21,479.57 4220.04,455.24 4223.10,455.84 4223.79,452.40 4221.84,452.01 4225.49,433.17 4236.08,424.95 4234.48,422.23 4239.57,418.79 4241.07,420.98 4254.32,411.99"/>
    <poly id="106107112" type="leisure.pitch" color="207,245,201" fill="1" layer="-2.00" shape="4336.62,533.15 4299.74,525.90 4296.09,520.53 4303.94,479.70 4349.66,488.86 4342.00,529.87 4336.62,533.15"/>
    <poly id="106107112#1" type="sport.soccer" color="79,230,125" fill="1" layer="-2.00" shape="4336.62,533.15 4299.74,525.90 4296.09,520.53 4303.94,479.70 4349.66,488.86 4342.00,529.87 4336.62,533.15"/>
    <poly id="106107115" type="leisure.recreation_ground" color="207,245,201" fill="1" layer="-2.00" shape="4355.42,457.59 4309.88,448.25 4304.13,478.04 4349.86,487.39 4355.42,457.59"/>
    <poly id="106107118" type="building.yes" color="255,230,230" fill="1" layer="-1.00" shape="4330.62,571.77 4309.29,568.09 4311.10,557.64 4332.42,561.30 4330.62,571.77"/>
    <poly id="106107157" type="building.yes" color="255,230,230" fill="1" layer="-1.00" shape="4262.23,543.70 4251.64,541.92 4252.27,538.23 4262.86,540.01 4262.23,543.70"/>
    <poly id="106107164" type="leisure.pitch" color="207,245,201" fill="1" layer="-2.00" shape="4289.97,497.37 4258.46,491.17 4261.99,473.31 4293.50,479.52 4289.97,497.37"/>
    <poly id="106107164#1" type="sport.tennis" color="79,230,125" fill="1" layer="-2.00" shape="4289.97,497.37 4258.46,491.17 4261.99,473.31 4293.50,479.52 4289.97,497.37"/>
    <poly id="118615757" type="amenity.parking" color="184,184,179" fill="1" layer="-1.00" shape="3789.27,615.81 3784.81,631.10 3767.00,626.43 3762.19,640.63 3732.40,632.18 3733.02,630.06 3712.42,624.44 3701.67,616.57 3702.72,610.36 3692.02,607.75 3695.65,590.23 3731.47,600.36 3736.07,604.79 3743.89,609.40 3746.59,610.04 3754.39,609.53 3762.99,608.54 3765.29,606.07 3766.74,603.16 3794.01,506.32 3798.24,507.43 3801.31,497.20 3802.54,497.55 3803.59,493.32 3825.24,499.04 3824.25,502.71 3835.57,505.45 3819.52,567.16 3816.57,566.40 3809.38,591.58 3810.98,600.80 3801.06,620.81 3789.27,615.81"/>
    <poly id="118618667" type="amenity.hospital" color="237,199,199" fill="1" layer="-1.00" shape="3787.40,987.81 3778.99,892.92 3763.42,786.36 3757.68,786.72 3755.39,772.93 3793.92,765.81 3783.19,744.87 3753.44,709.28 3725.79,685.19 3668.27,643.90 3591.58,588.91 3561.77,570.88 3514.14,541.38 3465.53,511.24 3457.92,528.96 3450.05,574.52 3400.32,561.20 3374.77,667.55 3361.97,722.62 3358.48,722.82 3357.85,731.68 3272.61,723.76 3181.18,700.02 3180.71,704.69 3164.12,704.13 3162.71,761.76 3161.53,814.78 3158.02,883.44 3158.80,891.83 3157.37,922.34 3211.42,928.72 3217.87,922.95 3232.16,924.16 3230.87,936.67 3274.33,940.65 3330.78,947.48 3328.78,927.74 3336.72,926.50 3349.52,917.38 3348.13,882.89 3377.68,879.47 3407.07,878.56 3492.29,886.51 3489.15,894.97 3603.37,927.39 3634.19,936.67 3669.52,947.80 3787.40,987.81"/>
    <poly id="118628037" type="building.hospital" color="255,230,230" fill="1" layer="-1.00" shape="3694.32,680.12 3689.97,695.38 3703.06,698.59 3701.64,703.27 3699.83,710.70 3703.52,711.68 3701.64,718.10 3704.33,718.76 3727.98,725.83 3730.83,714.25 3726.78,712.94 3728.86,705.59 3721.12,703.32 3721.69,700.38 3713.03,698.11 3713.60,694.62 3694.32,680.12"/>
    <poly id="129171945" type="waterway.river" color="181,209,209" fill="0" layer="-4.00" shape="2977.02,1791.86 3013.88,1787.31 3053.74,1774.15 3066.92,1771.03 3083.58,1771.68 3107.36,1771.56 3127.69,1772.55 3149.45,1773.26 3175.51,1775.14 3207.87,1777.07 3222.49,1776.03 3252.29,1770.44 3269.34,1765.20 3284.13,1762.62 3308.28,1764.12 3350.34,1767.52 3365.83,1766.78 3391.23,1772.30 3413.64,1784.63"/>
    <poly id="129171946" type="waterway.river" color="181,209,209" fill="0" layer="-4.00" shape="3413.64,1784.63 3468.17,1785.83"/>
    <poly id="129171947" type="waterway.river" color="181,209,209" fill="0" layer="-4.00" shape="3468.17,1785.83 3508.96,1776.64 3589.38,1776.16 3633.80,1781.50 3682.20,1762.09 3726.52,1745.28 3782.32,1747.50 3823.70,1733.97 3864.79,1718.31 3895.10,1707.22 3909.38,1703.83"/>
    <poly id="130997231" type="leisure.recreation_ground" color="207,245,201" fill="1" layer="-2.00" shape="4006.44,1332.61 4043.89,1330.04 4054.00,1296.26 4095.03,1220.82 4134.12,1159.28 4158.59,1112.94 4176.60,1095.98 4091.67,1030.78 4060.38,1063.40 3997.66,1015.68 3953.20,986.97 3880.54,940.63 3887.38,1009.13 3895.01,1204.31 3921.80,1205.59 3919.02,1325.83 4006.44,1332.61"/>
    <poly id="130997231#1" type="sport.rugby_union" color="79,230,125" fill="1" layer="-2.00" shape="4006.44,1332.61 4043.89,1330.04 4054.00,1296.26 4095.03,1220.82 4134.12,1159.28 4158.59,1112.94 4176.60,1095.98 4091.67,1030.78 4060.38,1063.40 3997.66,1015.68 3953.20,986.97 3880.54,940.63 3887.38,1009.13 3895.01,1204.31 3921.80,1205.59 3919.02,1325.83 4006.44,1332.61"/>
    <poly id="130997232" type="leisure.pitch" color="207,245,201" fill="1" layer="-2.00" shape="4017.84,1192.44 4016.43,1121.05 3899.39,1123.34 3900.80,1194.74 4017.84,1192.44"/>
    <poly id="130997232#1" type="sport.rugby_union" color="79,230,125" fill="1" layer="-2.00" shape="4017.84,1192.44 4016.43,1121.05 3899.39,1123.34 3900.80,1194.74 4017.84,1192.44"/>
    <poly id="130997233" type="leisure.pitch" color="207,245,201" fill="1" layer="-2.00" shape="3928.92,1315.76 3929.27,1212.86 3998.23,1213.10 3997.87,1316.00 3928.92,1315.76"/>
    <poly id="130997233#1" type="sport.rugby_union" color="79,230,125" fill="1" layer="-2.00" shape="3928.92,1315.76 3929.27,1212.86 3998.23,1213.10 3997.87,1316.00 3928.92,1315.76"/>
    <poly id="130997234" type="leisure.pitch" color="207,245,201" fill="1" layer="-2.00" shape="4027.65,1072.13 4094.79,1075.38 4089.08,1192.90 4021.94,1189.66 4027.65,1072.13"/>
    <poly id="130997234#1" type="sport.rugby_union" color="79,230,125" fill="1" layer="-2.00" shape="4027.65,1072.13 4094.79,1075.38 4089.08,1192.90 4021.94,1189.66 4027.65,1072.13"/>
    <poly id="130997235" type="leisure.pitch" color="207,245,201" fill="1" layer="-2.00" shape="3898.77,1113.85 3897.67,1045.69 4018.27,1043.77 4019.36,1111.94 3898.77,1113.85"/>
    <poly id="130997235#1" type="sport.rugby_union" color="79,230,125" fill="1" layer="-2.00" shape="3898.77,1113.85 3897.67,1045.69 4018.27,1043.77 4019.36,1111.94 3898.77,1113.85"/>
    <poly id="138289830" type="waterway.stream" color="181,209,209" fill="0" layer="-4.00" shape="4265.43,1005.73 4267.29,1003.17 4275.14,989.22 4279.60,985.39 4285.88,983.10 4328.60,945.10 4335.99,947.15"/>
    <poly id="138291056" type="building.hospital" color="255,230,230" fill="1" layer="-1.00" shape="3496.55,651.54 3489.18,636.79 3480.24,626.03 3468.08,616.87 3455.45,610.26 3449.38,608.64 3433.07,604.43 3430.06,616.06 3434.39,617.17 3424.88,653.80 3420.51,652.68 3417.66,663.65 3421.61,664.67 3419.66,672.18 3433.17,675.67 3486.63,689.80 3496.55,651.54"/>
    <poly id="138949263" type="amenity.parking" color="184,184,179" fill="1" layer="-1.00" shape="4010.83,1333.40 4029.51,1329.12 4084.20,1214.04 4058.63,1200.79 4034.63,1200.07 4012.10,1202.13 4010.83,1333.40"/>
    <poly id="138949265" type="building.yes" color="255,230,230" fill="1" layer="-1.00" shape="4035.90,1228.11 4036.67,1209.79 4034.72,1209.71 4035.07,1201.30 4057.75,1202.26 4057.11,1217.31 4061.01,1217.48 4060.86,1221.09 4050.94,1220.67 4050.61,1228.72 4035.90,1228.11"/>
    <poly id="138949265#1" type="leisure.sports_centre" color="207,245,201" fill="1" layer="-2.00" shape="4035.90,1228.11 4036.67,1209.79 4034.72,1209.71 4035.07,1201.30 4057.75,1202.26 4057.11,1217.31 4061.01,1217.48 4060.86,1221.09 4050.94,1220.67 4050.61,1228.72 4035.90,1228.11"/>
    <poly id="152028318" type="waterway.stream" color="181,209,209" fill="0" layer="-4.00" shape="3894.81,1625.20 3906.15,1670.02 3909.38,1703.83"/>
    <poly id="154406682" type="building.yes" color="255,230,230" fill="1" layer="-1.00" shape="3980.29,1945.19 3986.07,1922.81 3987.45,1923.52 3990.16,1918.23 3988.41,1917.26 4003.48,1898.96 3992.38,1890.14 3982.97,1902.13 3981.32,1900.83 3977.69,1905.81 3979.06,1907.25 3973.67,1913.85 3972.44,1918.30 3956.86,1914.47 3955.55,1918.52 3950.57,1917.56 3949.81,1921.24 3954.04,1922.37 3952.91,1926.60 3974.95,1931.75 3971.99,1943.11 3980.29,1945.19"/>
    <poly id="154406683" type="amenity.parking" color="184,184,179" fill="1" layer="-1.00" shape="4133.98,1940.20 4248.20,1971.54 4245.56,1979.26 4193.97,1966.76 4181.55,2002.02 4171.59,1999.74 4133.98,1940.20"/>
    <poly id="154406689" type="amenity.parking" color="184,184,179" fill="1" layer="-1.00" shape="3826.54,1833.87 3923.90,1822.19 3931.67,1874.72 3834.66,1889.52 3826.54,1833.87"/>
    <poly id="154406694" type="amenity.place_of_worship" color="237,199,199" fill="1" layer="-1.00" shape="4023.48,1936.59 4026.10,1924.70 4022.31,1923.86 4024.12,1915.69 4033.80,1917.83 4032.76,1922.53 4036.37,1923.34 4036.94,1920.79 4044.39,1922.44 4043.98,1924.29 4054.10,1926.52 4054.39,1925.20 4061.70,1926.80 4058.16,1942.81 4054.68,1942.04 4054.31,1943.67 4050.10,1942.74 4050.53,1940.82 4040.51,1938.61 4040.19,1940.07 4036.22,1939.20 4036.65,1937.22 4030.04,1935.76 4029.57,1937.93 4023.48,1936.59"/>
    <poly id="154406694#1" type="building.yes" color="255,230,230" fill="1" layer="-1.00" shape="4023.48,1936.59 4026.10,1924.70 4022.31,1923.86 4024.12,1915.69 4033.80,1917.83 4032.76,1922.53 4036.37,1923.34 4036.94,1920.79 4044.39,1922.44 4043.98,1924.29 4054.10,1926.52 4054.39,1925.20 4061.70,1926.80 4058.16,1942.81 4054.68,1942.04 4054.31,1943.67 4050.10,1942.74 4050.53,1940.82 4040.51,1938.61 4040.19,1940.07 4036.22,1939.20 4036.65,1937.22 4030.04,1935.76 4029.57,1937.93 4023.48,1936.59"/>
    <poly id="154406697" type="amenity.parking" color="184,184,179" fill="1" layer="-1.00" shape="4100.37,1844.28 4060.17,1868.97 4030.60,1874.65 4032.31,1894.07 4054.08,1899.68 4049.91,1919.97 4062.50,1922.86 4075.47,1935.87 4107.08,1913.28 4106.12,1902.54 4100.37,1844.28"/>
    <poly id="154406703" type="building.yes" color="255,230,230" fill="1" layer="-1.00" shape="4023.15,1895.17 4025.89,1893.69 4028.59,1894.02 4029.58,1896.93 4039.58,1899.66 4038.65,1903.07 4041.25,1903.78 4042.25,1900.12 4044.84,1899.38 4049.43,1900.66 4050.18,1902.29 4045.92,1917.84 4043.28,1918.60 4039.87,1917.87 4037.95,1915.66 4039.03,1911.71 4036.64,1911.06 4035.59,1914.88 4018.99,1910.35 4023.15,1895.17"/>
    <poly id="154411009" type="building.yes" color="255,230,230" fill="1" layer="-1.00" shape="3932.58,1718.09 3948.76,1723.39 3935.39,1763.98 3921.28,1759.35 3923.09,1753.87 3912.77,1750.49 3921.98,1722.57 3925.74,1713.90 3932.58,1718.09"/>
    <poly id="154411536" type="building.yes" color="255,230,230" fill="1" layer="-1.00" shape="3667.89,1661.15 3675.05,1666.04 3672.50,1669.76 3678.50,1673.85 3665.80,1692.40 3658.87,1687.69 3660.90,1684.72 3654.66,1680.47 3667.89,1661.15"/>
    <poly id="154411545" type="building.yes" color="255,230,230" fill="1" layer="-1.00" shape="3662.22,1705.01 3629.38,1716.48 3635.45,1733.77 3647.31,1729.63 3647.86,1731.21 3652.70,1729.52 3652.02,1727.61 3660.43,1724.68 3668.52,1747.73 3684.39,1742.19 3677.60,1722.81 3669.47,1725.65 3662.22,1705.01"/>
    <poly id="155721711" type="amenity.grave_yard" color="237,199,199" fill="1" layer="-1.00" shape="3628.52,402.37 3628.26,413.41 3626.42,413.77 3626.17,416.34 3628.02,416.91 3627.98,428.51 3578.72,423.40 3570.80,419.65 3562.14,411.31 3551.96,393.38 3548.00,377.51 3585.80,380.71 3591.53,384.26 3590.85,387.27 3603.10,387.79 3602.06,400.02 3628.52,402.37"/>
    <poly id="155721713" type="building.yes" color="255,230,230" fill="1" layer="-1.00" shape="3500.60,414.20 3510.91,401.73 3524.30,412.75 3526.87,409.63 3541.71,421.83 3531.03,434.75 3516.77,423.02 3514.57,425.69 3500.60,414.20"/>
    <poly id="155721714" type="building.yes" color="255,230,230" fill="1" layer="-1.00" shape="3451.23,387.53 3461.20,375.51 3474.82,386.74 3477.24,383.83 3484.56,389.88 3486.97,386.98 3501.44,398.92 3490.55,412.04 3477.14,400.97 3475.28,403.21 3467.29,396.61 3465.24,399.09 3451.23,387.53"/>
    <poly id="155721716" type="building.yes" color="255,230,230" fill="1" layer="-1.00" shape="3601.23,372.33 3633.11,373.84 3633.25,372.25 3646.65,373.05 3646.59,374.46 3682.33,376.15 3683.05,360.77 3665.33,359.94 3665.37,354.44 3660.30,354.29 3659.81,359.68 3647.62,359.11 3647.70,356.04 3633.96,355.35 3633.58,358.45 3622.69,357.94 3622.92,352.45 3616.80,351.95 3616.62,357.65 3601.96,356.97 3601.23,372.33"/>
    <poly id="155721724" type="building.yes" color="255,230,230" fill="1" layer="-1.00" shape="3621.03,387.96 3604.61,387.28 3604.19,397.60 3620.60,398.27 3621.03,387.96"/>
    <poly id="155721725" type="building.yes" color="255,230,230" fill="1" layer="-1.00" shape="3480.01,469.43 3517.62,490.21 3526.11,474.92 3516.11,469.39 3529.70,444.91 3502.10,429.66 3480.01,469.43"/>
    <poly id="155721733" type="building.yes" color="255,230,230" fill="1" layer="-1.00" shape="3687.44,408.73 3659.86,407.56 3660.77,386.20 3688.34,387.37 3687.44,408.73"/>
    <poly id="155721736" type="amenity.place_of_worship" color="237,199,199" fill="1" layer="-1.00" shape="3652.44,389.68 3651.93,398.42 3645.48,398.03 3643.96,423.77 3633.29,423.14 3634.82,397.14 3627.13,396.69 3627.60,388.68 3635.73,389.16 3636.26,386.68 3638.01,385.28 3641.15,385.46 3642.77,386.97 3643.78,389.17 3652.44,389.68"/>
    <poly id="155721736#1" type="building.yes" color="255,230,230" fill="1" layer="-1.00" shape="3652.44,389.68 3651.93,398.42 3645.48,398.03 3643.96,423.77 3633.29,423.14 3634.82,397.14 3627.13,396.69 3627.60,388.68 3635.73,389.16 3636.26,386.68 3638.01,385.28 3641.15,385.46 3642.77,386.97 3643.78,389.17 3652.44,389.68"/>
    <poly id="172291749" type="waterway.weir" color="181,209,209" fill="0" layer="-4.00" shape="4287.13,1764.74 4292.06,1769.08 4294.25,1772.41 4293.89,1774.97 4293.66,1777.01 4290.68,1780.86 4286.57,1783.60"/>
    <poly id="172293693" type="waterway.riverbank" color="181,209,209" fill="1" layer="-4.00" shape="3623.54,2006.85 3625.83,2003.39 3628.16,1997.60 3638.91,1999.49 3644.36,2003.82 3661.50,2001.75 3656.94,1999.58 3673.16,1992.96 3683.08,1998.73 3722.98,1992.92 3828.13,1953.84 3883.87,1928.22 3886.93,1921.50 3898.84,1919.02 3911.39,1913.36 3927.43,1901.20 3947.02,1896.36 3956.65,1891.83 4051.21,1868.47 4108.73,1837.81 4198.23,1775.20 4224.02,1767.54 4279.86,1780.27 4286.57,1783.60 4295.07,1787.33 4320.19,1792.38 4355.68,1803.40 4359.74,1803.43 4477.64,1841.14 4484.73,1843.17 4514.80,1860.92 4520.26,1866.40 4540.32,1875.56 4579.11,1898.10 4624.41,1912.95 4657.24,1917.05 4662.99,1912.68 4666.68,1913.99 4674.32,1898.64 4672.83,1897.62 4667.72,1897.06 4630.61,1898.09 4588.26,1883.98 4561.04,1868.70 4538.12,1847.00 4517.37,1830.84 4510.26,1828.42 4504.68,1831.94 4499.46,1832.01 4483.08,1824.71 4480.35,1820.46 4373.32,1789.34 4318.97,1773.69 4287.13,1764.74 4250.44,1754.44 4216.00,1743.16 4207.58,1742.75 4205.92,1747.19 4203.63,1753.23 4185.73,1763.26 4090.25,1814.49 4086.72,1817.23 4082.34,1825.52 4052.49,1845.20 4034.81,1852.95 3982.47,1868.07 3961.65,1875.15 3948.82,1875.75 3939.57,1879.75 3919.60,1884.39 3909.44,1892.59 3881.19,1905.09 3866.08,1911.78 3821.11,1923.22 3774.86,1926.23 3607.76,1931.67 3586.89,1934.58 3569.19,1941.03 3559.05,1949.00 3556.65,1951.22 3558.26,1957.63 3562.75,1964.42 3574.37,1976.15 3592.10,1991.49 3604.86,1999.92 3623.54,2006.85"/>
    <poly id="172293695" type="building.yes" color="255,230,230" fill="1" layer="-1.00" shape="3647.20,2005.89 3659.94,2004.00 3664.64,2035.78 3648.98,2038.09 3647.98,2031.34 3650.90,2030.90 3647.20,2005.89"/>
    <poly id="172293698" type="waterway.weir" color="181,209,209" fill="0" layer="-4.00" shape="3635.09,2032.51 3633.45,2019.65 3631.92,2009.48"/>
    <poly id="172293699" type="waterway.riverbank" color="181,209,209" fill="1" layer="-4.00" shape="3874.61,2049.73 3679.75,2006.86 3677.19,2029.49 3691.76,2032.35 3715.49,2031.72 3742.10,2037.84 3811.77,2053.78 3870.83,2072.94 3874.61,2049.73"/>
    <poly id="172293700" type="waterway.riverbank" color="181,209,209" fill="1" layer="-4.00" shape="3556.65,1951.22 3543.31,1952.17 3516.52,1951.27 3511.51,1946.76 3453.02,1928.22 3346.87,1917.11 3306.72,1913.89 3258.26,1918.87 3203.32,1932.49 3173.05,1937.25 3160.89,1946.18 3162.14,1949.17 3162.76,1950.65 3157.06,1953.41 3150.72,1956.32 3149.94,1954.52 3140.33,1960.27 2995.05,2021.70 2929.49,2052.31 2895.64,2066.89 2885.47,2069.77 2873.76,2068.41 2872.29,2067.71 2871.19,2065.90 2869.43,2067.92 2866.56,2068.73 2850.78,2070.19 2815.29,2067.32 2780.79,2061.72 2728.26,2050.05 2705.21,2040.26 2667.70,2045.06 2592.73,2040.45 2502.02,2047.59 2475.13,2049.70 2251.60,2091.25 2122.80,2127.37 2025.45,2174.63 1968.49,2214.92 1860.99,2309.66 1759.48,2391.49 1653.45,2440.30 1592.57,2448.15 1546.48,2453.17 1439.96,2487.25 1366.44,2532.15 1331.32,2576.70 1289.80,2605.89 1134.07,2672.06 1067.82,2688.73 1017.03,2690.18 979.29,2681.11 927.97,2671.96 855.29,2677.40 788.06,2680.32 740.73,2677.29 699.64,2668.95 679.69,2657.36 646.55,2626.04 613.75,2582.84 578.70,2520.19 487.88,2401.82 466.81,2369.88 436.77,2357.92 421.52,2340.75 394.43,2327.02 375.29,2317.04 366.81,2330.37 354.61,2348.94 453.55,2413.98 528.01,2503.38 628.66,2654.21 707.54,2695.92 752.92,2710.93 810.24,2705.40 884.06,2704.68 959.69,2716.21 1048.66,2731.02 1194.12,2700.12 1289.34,2660.07 1315.21,2643.17 1325.00,2624.98 1407.76,2559.69 1477.38,2519.40 1565.62,2491.95 1585.70,2498.13 1661.41,2493.26 1726.22,2457.58 1786.99,2416.30 1854.25,2370.90 1918.86,2319.60 2037.97,2227.33 2138.56,2174.81 2223.24,2150.22 2340.92,2130.15 2410.13,2119.38 2486.80,2110.61 2565.81,2099.13 2607.60,2103.06 2628.16,2108.22 2647.14,2110.46 2661.56,2108.18 2678.68,2106.65 2722.54,2114.84 2735.02,2125.19 2831.35,2147.21 2830.11,2138.34 2843.92,2137.93 2864.06,2140.77 3040.29,2063.89 3117.32,2034.85 3229.38,1983.49 3304.87,1974.30 3408.68,1997.40 3568.61,2022.78 3609.86,2034.11 3615.46,2032.66 3621.35,2026.29 3627.67,2026.33 3632.75,2032.46 3630.42,2019.83 3629.27,2009.96 3623.54,2006.85 3604.86,1999.92 3592.10,1991.49 3574.37,1976.15 3562.75,1964.42 3558.26,1957.63 3556.65,1951.22"/>
    <poly id="172293915" type="waterway.riverbank" color="181,209,209" fill="1" layer="-4.00" shape="3650.25,2029.31 3646.55,2030.02 3646.53,2032.22 3635.09,2032.51 3632.75,2032.46 3630.42,2019.83 3629.27,2009.96 3631.92,2009.48 3637.38,2010.22 3647.05,2009.96 3650.25,2029.31"/>
    <poly id="172293916" type="waterway.riverbank" color="181,209,209" fill="1" layer="-4.00" shape="3661.28,2007.47 3668.78,2006.63 3675.47,2007.17 3673.88,2028.18 3669.63,2027.96 3664.32,2029.23 3661.28,2007.47"/>
    <poly id="173864126" type="building.industrial" color="255,230,230" fill="1" layer="-1.00" shape="3907.06,1370.30 3885.69,1368.59 3887.90,1341.08 3892.26,1341.42 3892.74,1335.43 3909.75,1336.79 3907.06,1370.30"/>
    <poly id="173864134" type="building.industrial" color="255,230,230" fill="1" layer="-1.00" shape="3923.59,1372.81 3925.27,1354.23 3956.50,1357.05 3954.82,1375.62 3923.59,1372.81"/>
    <poly id="173864137" type="building.apartments" color="255,230,230" fill="1" layer="-1.00" shape="3786.84,1455.43 3797.37,1454.04 3797.68,1455.11 3809.57,1453.60 3810.39,1460.55 3813.21,1460.23 3814.26,1468.51 3808.16,1469.02 3810.35,1489.80 3817.44,1488.79 3818.32,1496.85 3818.36,1499.14 3817.79,1500.87 3816.36,1501.55 3816.33,1502.27 3810.73,1502.90 3810.54,1502.34 3809.40,1502.04 3808.40,1501.20 3808.01,1499.51 3805.58,1499.66 3805.75,1500.38 3803.18,1501.05 3791.39,1502.48 3790.10,1492.47 3793.08,1491.96 3792.40,1486.17 3793.33,1485.89 3792.19,1477.35 3791.45,1477.15 3790.79,1470.93 3787.84,1471.28 3786.44,1459.86 3787.23,1459.88 3786.84,1455.43"/>
    <poly id="173864138" type="building.apartments" color="255,230,230" fill="1" layer="-1.00" shape="3833.10,1547.98 3807.97,1550.94 3808.08,1552.58 3798.54,1553.65 3797.86,1549.23 3796.91,1549.40 3795.51,1537.61 3797.11,1537.41 3796.81,1535.00 3797.52,1534.88 3796.62,1527.48 3795.87,1527.48 3794.72,1518.27 3798.97,1517.76 3798.76,1516.58 3799.50,1515.85 3802.77,1515.56 3803.26,1514.38 3807.69,1513.60 3809.45,1514.84 3810.79,1516.18 3811.08,1519.27 3812.73,1519.28 3814.73,1535.17 3831.36,1532.88 3833.10,1547.98"/>
    <poly id="173864141" type="building.retail" color="255,230,230" fill="1" layer="-1.00" shape="3488.20,1284.46 3501.03,1286.26 3507.81,1287.24 3520.99,1288.94 3526.96,1252.25 3494.15,1246.93 3488.20,1284.46"/>
    <poly id="173864141#1" type="shop.car" color="237,199,255" fill="1" layer="-1.00" shape="3488.20,1284.46 3501.03,1286.26 3507.81,1287.24 3520.99,1288.94 3526.96,1252.25 3494.15,1246.93 3488.20,1284.46"/>
    <poly id="173864147" type="amenity.school" color="237,199,199" fill="1" layer="-1.00" shape="4340.12,1180.49 4348.83,1164.81 4409.00,1198.05 4398.37,1217.19 4391.60,1213.45 4397.23,1203.30 4383.42,1195.67 4379.77,1202.24 4373.27,1198.64 4376.96,1192.01 4366.56,1186.25 4364.01,1190.83 4358.53,1187.80 4361.09,1183.18 4350.59,1177.38 4346.82,1184.19 4340.12,1180.49"/>
    <poly id="173864147#1" type="building.yes" color="255,230,230" fill="1" layer="-1.00" shape="4340.12,1180.49 4348.83,1164.81 4409.00,1198.05 4398.37,1217.19 4391.60,1213.45 4397.23,1203.30 4383.42,1195.67 4379.77,1202.24 4373.27,1198.64 4376.96,1192.01 4366.56,1186.25 4364.01,1190.83 4358.53,1187.80 4361.09,1183.18 4350.59,1177.38 4346.82,1184.19 4340.12,1180.49"/>
    <poly id="173864148" type="building.industrial" color="255,230,230" fill="1" layer="-1.00" shape="3969.82,1354.75 3969.98,1336.22 3979.76,1336.30 3979.76,1335.18 3985.65,1335.24 3985.47,1356.72 3979.57,1356.67 3979.59,1354.84 3969.82,1354.75"/>
    <poly id="173864154" type="amenity.place_of_worship" color="237,199,199" fill="1" layer="-1.00" shape="3727.40,1318.24 3727.88,1310.45 3724.20,1309.41 3721.95,1307.49 3720.53,1304.35 3720.54,1301.46 3720.87,1299.06 3722.73,1296.46 3725.75,1294.86 3729.17,1294.87 3730.01,1287.31 3744.15,1288.66 3743.61,1296.61 3773.98,1299.00 3774.80,1297.75 3776.83,1297.76 3777.74,1298.87 3777.67,1300.68 3776.07,1301.25 3775.44,1311.56 3776.29,1312.82 3775.61,1314.69 3773.57,1314.87 3772.48,1313.38 3742.27,1310.84 3741.59,1319.42 3727.40,1318.24"/>
    <poly id="173864154#1" type="building.yes" color="255,230,230" fill="1" layer="-1.00" shape="3727.40,1318.24 3727.88,1310.45 3724.20,1309.41 3721.95,1307.49 3720.53,1304.35 3720.54,1301.46 3720.87,1299.06 3722.73,1296.46 3725.75,1294.86 3729.17,1294.87 3730.01,1287.31 3744.15,1288.66 3743.61,1296.61 3773.98,1299.00 3774.80,1297.75 3776.83,1297.76 3777.74,1298.87 3777.67,1300.68 3776.07,1301.25 3775.44,1311.56 3776.29,1312.82 3775.61,1314.69 3773.57,1314.87 3772.48,1313.38 3742.27,1310.84 3741.59,1319.42 3727.40,1318.24"/>
    <poly id="173864156" type="building.office" color="255,230,230" fill="1" layer="-1.00" shape="3856.82,1508.55 3871.58,1509.03 3870.89,1446.41 3855.95,1446.31 3855.93,1449.26 3854.26,1449.25 3854.98,1506.70 3856.58,1506.68 3856.82,1508.55"/>
    <poly id="173958771" type="building.apartments" color="255,230,230" fill="1" layer="-1.00" shape="3910.15,1456.09 3852.56,1428.45 3854.35,1404.69 3856.63,1404.76 3867.50,1405.18 3885.45,1415.79 3884.57,1418.00 3930.54,1439.14 3917.01,1450.80 3915.21,1449.57 3910.15,1456.09"/>
    <poly id="173958773" type="building.apartments" color="255,230,230" fill="1" layer="-1.00" shape="3855.24,1393.48 3870.45,1405.16 3904.99,1407.81 3959.80,1408.03 3966.24,1401.25 3974.67,1392.35 3960.60,1391.92 3919.58,1390.65 3896.21,1388.55 3869.22,1386.32 3855.66,1385.76 3855.24,1393.48"/>
    <poly id="173958775" type="landuse.industrial" color="209,209,204" fill="1" layer="-3.00" shape="3945.20,1378.26 3884.72,1372.03 3888.10,1331.10 3891.07,1329.10 3915.62,1329.63 3932.96,1332.14 3957.50,1333.60 3966.73,1332.74 3985.93,1332.87 3985.29,1372.27 3966.84,1375.73 3956.09,1377.04 3945.02,1377.15 3945.20,1378.26"/>
    <poly id="177348192" type="building.public" color="255,230,230" fill="1" layer="-1.00" shape="3647.39,1819.02 3691.77,1814.13 3690.62,1803.77 3668.58,1806.21 3665.88,1781.87 3643.54,1784.33 3647.39,1819.02"/>
    <poly id="177349336" type="amenity.parking" color="184,184,179" fill="1" layer="-1.00" shape="3568.42,1763.28 3567.00,1699.38 3606.32,1698.72 3630.86,1762.25 3568.42,1763.28"/>
    <poly id="177349336#1" type="building.yes" color="255,230,230" fill="1" layer="-1.00" shape="3568.42,1763.28 3567.00,1699.38 3606.32,1698.72 3630.86,1762.25 3568.42,1763.28"/>
    <poly id="197309042" type="amenity.shop" color="237,199,199" fill="1" layer="-1.00" shape="3755.13,597.12 3698.93,581.08 3712.57,529.80 3770.24,546.02 3755.13,597.12"/>
    <poly id="197309042#1" type="shop.clothes" color="237,199,255" fill="1" layer="-1.00" shape="3755.13,597.12 3698.93,581.08 3712.57,529.80 3770.24,546.02 3755.13,597.12"/>
    <poly id="22329862" type="leisure.pitch" color="207,245,201" fill="1" layer="-2.00" shape="4081.27,2062.11 4162.90,1999.81 4121.21,1945.47 4039.58,2007.76 4081.27,2062.11"/>
    <poly id="22329862#1" type="sport.rugby_union" color="79,230,125" fill="1" layer="-2.00" shape="4081.27,2062.11 4162.90,1999.81 4121.21,1945.47 4039.58,2007.76 4081.27,2062.11"/>
    <poly id="22330165" type="leisure.track" color="207,245,201" fill="1" layer="-2.00" shape="4154.80,2093.15 4156.29,2088.19 4150.57,2082.09 4146.48,2075.14 4143.58,2067.49 4142.31,2058.09 4142.92,2048.97 4144.68,2040.18 4147.82,2033.24 4152.46,2026.23 4156.59,2020.98 4163.67,2015.47 4170.44,2011.78 4173.60,2002.22 4302.65,2039.84 4301.36,2045.36 4307.14,2052.33 4312.39,2061.31 4314.70,2071.78 4315.14,2082.44 4313.37,2091.10 4310.27,2099.25 4305.82,2106.63 4300.76,2112.67 4295.53,2116.68 4287.21,2121.82 4284.03,2132.15 4154.80,2093.15"/>
    <poly id="22330165#1" type="sport.athletics" color="79,230,125" fill="1" layer="-2.00" shape="4154.80,2093.15 4156.29,2088.19 4150.57,2082.09 4146.48,2075.14 4143.58,2067.49 4142.31,2058.09 4142.92,2048.97 4144.68,2040.18 4147.82,2033.24 4152.46,2026.23 4156.59,2020.98 4163.67,2015.47 4170.44,2011.78 4173.60,2002.22 4302.65,2039.84 4301.36,2045.36 4307.14,2052.33 4312.39,2061.31 4314.70,2071.78 4315.14,2082.44 4313.37,2091.10 4310.27,2099.25 4305.82,2106.63 4300.76,2112.67 4295.53,2116.68 4287.21,2121.82 4284.03,2132.15 4154.80,2093.15"/>
    <poly id="22635231" type="landuse.cemetery" color="194,194,130" fill="1" layer="-3.00" shape="4180.62,904.90 4175.81,902.10 4172.08,901.22 4167.55,901.31 4162.83,903.06 4156.77,908.46 4116.40,877.79 4140.31,838.28 4103.64,831.38 4111.46,803.66 4123.10,756.25 4127.23,744.56 4124.87,743.01 4131.00,728.33 4147.21,671.21 4155.45,638.45 4170.15,642.37 4178.39,617.99 4195.89,554.60 4200.83,549.29 4229.93,559.20 4335.70,578.16 4334.24,593.05 4331.78,601.78 4350.99,609.43 4385.46,625.74 4404.42,637.04 4421.95,617.15 4436.62,626.24 4467.18,644.96 4507.35,670.12 4490.69,689.09 4481.28,702.19 4451.67,734.31 4428.84,761.68 4406.53,778.03 4389.70,790.57 4333.53,831.85 4319.75,840.58 4311.39,855.23 4267.84,912.13 4228.03,965.11 4189.69,933.97 4192.65,929.50 4193.73,924.88 4193.75,921.17 4193.05,917.82 4191.04,914.65 4187.66,910.82 4180.62,904.90"/>
    <poly id="294894993" type="landuse.meadow" color="194,194,130" fill="1" layer="-3.00" shape="3240.17,380.36 3317.12,413.65 3342.38,341.70 3261.31,315.01 3240.17,380.36"/>