<?xml version="1.0" encoding="UTF-8"?>

<!-- generated on Thu Nov  2 19:31:55 2017 by SUMO netconvert Version 0.30.0
<?xml version="1.0" encoding="UTF-8"?>

<configuration xmlns:xsi="http://www.w3.org/2001/XMLSchema-instance" xsi:noNamespaceSchemaLocation="http://sumo.dlr.de/xsd/netconvertConfiguration.xsd">

    <input>
        <type-files value="/home/kealan/sumo-svn/data/typemap/osmNetconvert.typ.xml"/>
        <osm-files value="osm_bbox.osm.xml"/>
    </input>

    <output>
        <output-file value="/home/kealan/College/fyp/mapdata/2017-11-02-19-31-52/osm.net.xml"/>
        <output.street-names value="true"/>
        <output.original-names value="true"/>
        <ptstop-output value="osm_stops.add.xml"/>
    </output>

    <projection>
        <proj.utm value="true"/>
    </projection>

    <tls_building>
        <tls.discard-simple value="true"/>
        <tls.join value="true"/>
        <tls.guess-signals value="true"/>
        <tls.default-type value="actuated"/>
    </tls_building>

    <ramp_guessing>
        <ramps.guess value="true"/>
    </ramp_guessing>

    <processing>
        <osm.stop-output.length value="25"/>
        <geometry.remove value="true"/>
        <roundabouts.guess value="true"/>
        <junctions.join value="true"/>
        <junctions.corner-detail value="5"/>
    </processing>

    <report>
        <verbose value="true"/>
    </report>

</configuration>
-->

<net version="0.27" junctionCornerDetail="5" xmlns:xsi="http://www.w3.org/2001/XMLSchema-instance" xsi:noNamespaceSchemaLocation="http://sumo.dlr.de/xsd/net_file.xsd">

    <location netOffset="-530107.22,-5747428.87" convBoundary="0.00,0.00,5055.29,2271.69" origBoundary="-8.574442,51.876602,-8.460925,51.901592" projParameter="+proj=utm +zone=29 +ellps=WGS84 +datum=WGS84 +units=m +no_defs"/>

    <type id="highway.bridleway" priority="1" numLanes="1" speed="2.78" allow="pedestrian" oneway="1" width="2.00"/>
    <type id="highway.bus_guideway" priority="1" numLanes="1" speed="8.33" allow="bus" oneway="1"/>
    <type id="highway.cycleway" priority="1" numLanes="1" speed="5.56" allow="bicycle" oneway="0" width="1.00"/>
    <type id="highway.footway" priority="1" numLanes="1" speed="2.78" allow="pedestrian" oneway="1" width="2.00"/>
    <type id="highway.ford" priority="1" numLanes="1" speed="2.78" allow="army" oneway="0"/>
    <type id="highway.living_street" priority="3" numLanes="1" speed="2.78" disallow="tram rail_urban rail rail_electric ship" oneway="0"/>
    <type id="highway.motorway" priority="13" numLanes="2" speed="44.44" allow="private emergency authority army vip passenger hov taxi bus coach delivery truck trailer motorcycle evehicle custom1 custom2" oneway="1"/>
    <type id="highway.motorway_link" priority="12" numLanes="1" speed="22.22" allow="private emergency authority army vip passenger hov taxi bus coach delivery truck trailer motorcycle evehicle custom1 custom2" oneway="1"/>
    <type id="highway.path" priority="1" numLanes="1" speed="2.78" allow="bicycle pedestrian" oneway="1" width="2.00"/>
    <type id="highway.pedestrian" priority="1" numLanes="1" speed="2.78" allow="pedestrian" oneway="1" width="2.00"/>
    <type id="highway.primary" priority="9" numLanes="2" speed="27.78" disallow="tram rail_urban rail rail_electric ship" oneway="0"/>
    <type id="highway.primary_link" priority="8" numLanes="1" speed="22.22" disallow="tram rail_urban rail rail_electric ship" oneway="0"/>
    <type id="highway.raceway" priority="14" numLanes="2" speed="83.33" allow="vip" oneway="0"/>
    <type id="highway.residential" priority="4" numLanes="1" speed="13.89" disallow="tram rail_urban rail rail_electric ship" oneway="0"/>
    <type id="highway.secondary" priority="7" numLanes="2" speed="27.78" disallow="tram rail_urban rail rail_electric ship" oneway="0"/>
    <type id="highway.secondary_link" priority="6" numLanes="1" speed="22.22" disallow="tram rail_urban rail rail_electric ship" oneway="0"/>
    <type id="highway.service" priority="2" numLanes="1" speed="5.56" allow="delivery bicycle pedestrian" oneway="0"/>
    <type id="highway.services" priority="1" numLanes="1" speed="8.33" disallow="tram rail_urban rail rail_electric ship" oneway="0"/>
    <type id="highway.stairs" priority="1" numLanes="1" speed="1.39" allow="pedestrian" oneway="1" width="2.00"/>
    <type id="highway.step" priority="1" numLanes="1" speed="1.39" allow="pedestrian" oneway="1" width="2.00"/>
    <type id="highway.steps" priority="1" numLanes="1" speed="1.39" allow="pedestrian" oneway="1" width="2.00"/>
    <type id="highway.tertiary" priority="6" numLanes="1" speed="22.22" disallow="tram rail_urban rail rail_electric ship" oneway="0"/>
    <type id="highway.tertiary_link" priority="5" numLanes="1" speed="22.22" disallow="tram rail_urban rail rail_electric ship" oneway="0"/>
    <type id="highway.track" priority="1" numLanes="1" speed="5.56" disallow="tram rail_urban rail rail_electric ship" oneway="0"/>
    <type id="highway.trunk" priority="11" numLanes="2" speed="27.78" disallow="tram rail_urban rail rail_electric bicycle pedestrian ship" oneway="0"/>
    <type id="highway.trunk_link" priority="10" numLanes="1" speed="22.22" disallow="tram rail_urban rail rail_electric bicycle pedestrian ship" oneway="0"/>
    <type id="highway.unclassified" priority="5" numLanes="1" speed="13.89" disallow="tram rail_urban rail rail_electric ship" oneway="0"/>
    <type id="highway.unsurfaced" priority="1" numLanes="1" speed="8.33" disallow="tram rail_urban rail rail_electric ship" oneway="0"/>
    <type id="railway.light_rail" priority="15" numLanes="1" speed="27.78" allow="rail_urban" oneway="1"/>
    <type id="railway.preserved" priority="15" numLanes="1" speed="27.78" allow="rail" oneway="1"/>
    <type id="railway.rail" priority="15" numLanes="1" speed="83.33" allow="rail rail_electric" oneway="1"/>
    <type id="railway.subway" priority="15" numLanes="1" speed="27.78" allow="rail_urban" oneway="1"/>
    <type id="railway.tram" priority="15" numLanes="1" speed="13.89" allow="tram" oneway="1"/>

    <edge id=":1142134993_0" function="internal">
        <lane id=":1142134993_0_0" index="0" allow="delivery bicycle pedestrian" speed="5.56" length="4.82" shape="4122.19,1610.15 4120.81,1610.72 4119.90,1610.60 4119.44,1609.80 4119.45,1608.31"/>
    </edge>
    <edge id=":1142135013_0" function="internal">
        <lane id=":1142135013_0_0" index="0" disallow="tram rail_urban rail rail_electric ship" speed="13.89" length="4.82" shape="3752.14,1657.51 3750.79,1656.87 3750.27,1656.12 3750.55,1655.24 3751.66,1654.24"/>
    </edge>
    <edge id=":1142135027_0" function="internal">
        <lane id=":1142135027_0_0" index="0" allow="delivery bicycle pedestrian" speed="5.56" length="0.76" shape="4127.58,1701.72 4127.36,1701.71 4127.20,1701.72 4127.05,1701.76 4126.84,1701.84"/>
    </edge>
    <edge id=":1142135157_0" function="internal">
        <lane id=":1142135157_0_0" index="0" allow="delivery bicycle pedestrian" speed="5.56" length="4.82" shape="4119.12,1588.71 4118.99,1587.23 4119.38,1586.40 4120.28,1586.20 4121.70,1586.66"/>
    </edge>
    <edge id=":1142135191_0" function="internal">
        <lane id=":1142135191_0_0" index="0" allow="delivery bicycle pedestrian" speed="5.56" length="4.82" shape="4135.84,1646.32 4135.15,1645.00 4135.18,1644.08 4135.94,1643.55 4137.42,1643.42"/>
    </edge>
    <edge id=":1142135226_0" function="internal">
        <lane id=":1142135226_0_0" index="0" allow="delivery bicycle pedestrian" speed="5.56" length="7.60" shape="4112.93,1728.67 4111.70,1728.36 4110.69,1727.25 4109.88,1725.35 4109.30,1722.65"/>
    </edge>
    <edge id=":1142135226_1" function="internal">
        <lane id=":1142135226_1_0" index="0" allow="delivery bicycle pedestrian" speed="5.56" length="4.82" shape="4112.93,1728.67 4111.64,1727.93 4111.17,1727.14 4111.53,1726.28 4112.71,1725.38"/>
    </edge>
    <edge id=":1142135226_2" function="internal">
        <lane id=":1142135226_2_0" index="0" allow="delivery bicycle pedestrian" speed="5.56" length="6.23" shape="4106.77,1727.43 4108.14,1727.05 4109.02,1726.13 4109.40,1724.66 4109.30,1722.65"/>
    </edge>
    <edge id=":1142135226_3" function="internal">
        <lane id=":1142135226_3_0" index="0" allow="delivery bicycle pedestrian" speed="5.56" length="6.36" shape="4106.77,1727.43 4108.58,1727.05 4109.74,1726.40 4110.90,1725.76 4112.71,1725.38"/>
    </edge>
    <edge id=":1194092797_0" function="internal">
        <lane id=":1194092797_0_0" index="0" allow="delivery bicycle pedestrian" speed="5.56" length="4.82" shape="3522.05,313.97 3522.87,312.73 3523.70,312.31 3524.52,312.72 3525.35,313.95"/>
    </edge>
    <edge id=":1194093025_0" function="internal">
        <lane id=":1194093025_0_0" index="0" disallow="tram rail_urban rail rail_electric ship" speed="13.89" length="4.82" shape="3545.41,435.77 3543.99,436.24 3543.09,436.05 3542.69,435.22 3542.81,433.73"/>
    </edge>
    <edge id=":1194093120_0" function="internal">
        <lane id=":1194093120_0_0" index="0" allow="delivery bicycle pedestrian" speed="5.56" length="4.82" shape="3524.45,360.99 3523.63,362.23 3522.80,362.64 3521.98,362.23 3521.15,360.99"/>
    </edge>
    <edge id=":1221654098_0" function="internal">
        <lane id=":1221654098_0_0" index="0" allow="delivery bicycle pedestrian" speed="5.56" length="5.21" shape="4312.71,555.95 4311.21,555.90 4310.03,556.26 4309.16,557.03 4308.59,558.22"/>
    </edge>
    <edge id=":1221654098_1" function="internal">
        <lane id=":1221654098_1_0" index="0" allow="delivery bicycle pedestrian" speed="5.56" length="10.38" shape="4312.71,555.95 4309.99,555.12 4308.19,553.61 4307.34,551.43 4307.41,548.58"/>
    </edge>
    <edge id=":1221654098_2" function="internal">
        <lane id=":1221654098_2_0" index="0" allow="delivery bicycle pedestrian" speed="5.56" length="4.82" shape="4312.71,555.95 4311.61,554.95 4311.33,554.07 4311.87,553.32 4313.22,552.69"/>
    </edge>
    <edge id=":1221654098_3" function="internal">
        <lane id=":1221654098_3_0" index="0" allow="delivery bicycle pedestrian" speed="5.56" length="5.01" shape="4310.66,549.13 4310.63,550.51 4311.04,551.56 4311.91,552.29 4313.22,552.69"/>
    </edge>
    <edge id=":1221654098_4" function="internal">
        <lane id=":1221654098_4_0" index="0" allow="delivery bicycle pedestrian" speed="5.56" length="9.33" shape="4310.66,549.13 4310.20,551.86 4309.83,553.72 4309.36,555.56 4308.59,558.22"/>
    </edge>
    <edge id=":1221654098_5" function="internal">
        <lane id=":1221654098_5_0" index="0" allow="delivery bicycle pedestrian" speed="5.56" length="4.82" shape="4310.66,549.13 4309.64,550.22 4308.76,550.49 4308.02,549.94 4307.41,548.58"/>
    </edge>
    <edge id=":1221654098_6" function="internal">
        <lane id=":1221654098_6_0" index="0" allow="delivery bicycle pedestrian" speed="5.56" length="8.94" shape="4305.42,557.29 4306.16,554.74 4306.61,552.98 4306.96,551.20 4307.41,548.58"/>
    </edge>
    <edge id=":1221654098_7" function="internal">
        <lane id=":1221654098_7_0" index="0" allow="delivery bicycle pedestrian" speed="5.56" length="10.05" shape="4305.42,557.29 4306.53,554.92 4308.19,553.36 4310.42,552.62 4313.22,552.69"/>
    </edge>
    <edge id=":1221654098_8" function="internal">
        <lane id=":1221654098_8_0" index="0" allow="delivery bicycle pedestrian" speed="5.56" length="4.82" shape="4305.42,557.29 4306.57,556.34 4307.47,556.17 4308.15,556.80 4308.59,558.22"/>
    </edge>
    <edge id=":1221654505_0" function="internal">
        <lane id=":1221654505_0_0" index="0" disallow="tram rail_urban rail rail_electric ship" speed="13.89" length="4.82" shape="4186.44,577.70 4187.50,578.75 4187.75,579.64 4187.19,580.37 4185.82,580.95"/>
    </edge>
    <edge id=":1221654512_0" function="internal">
        <lane id=":1221654512_0_0" index="0" allow="delivery bicycle pedestrian" speed="5.56" length="5.02" shape="4311.90,439.52 4310.52,439.45 4309.44,439.82 4308.67,440.65 4308.19,441.93"/>
    </edge>
    <edge id=":1221654512_1" function="internal">
        <lane id=":1221654512_1_0" index="0" allow="delivery bicycle pedestrian" speed="5.56" length="10.31" shape="4311.90,439.52 4309.23,438.60 4307.50,437.04 4306.69,434.85 4306.82,432.03"/>
    </edge>
    <edge id=":1221654512_2" function="internal">
        <lane id=":1221654512_2_0" index="0" allow="delivery bicycle pedestrian" speed="5.56" length="4.82" shape="4311.90,439.52 4310.84,438.47 4310.60,437.58 4311.16,436.85 4312.53,436.28"/>
    </edge>
    <edge id=":1221654512_3" function="internal">
        <lane id=":1221654512_3_0" index="0" allow="delivery bicycle pedestrian" speed="5.56" length="5.00" shape="4310.07,432.65 4310.00,434.02 4310.39,435.08 4311.23,435.83 4312.53,436.28"/>
    </edge>
    <edge id=":1221654512_4" function="internal">
        <lane id=":1221654512_4_0" index="0" allow="delivery bicycle pedestrian" speed="5.56" length="9.47" shape="4310.07,432.65 4308.19,441.93"/>
    </edge>
    <edge id=":1221654512_5" function="internal">
        <lane id=":1221654512_5_0" index="0" allow="delivery bicycle pedestrian" speed="5.56" length="4.82" shape="4310.07,432.65 4309.02,433.71 4308.14,433.96 4307.40,433.40 4306.82,432.03"/>
    </edge>
    <edge id=":1221654512_6" function="internal">
        <lane id=":1221654512_6_0" index="0" allow="delivery bicycle pedestrian" speed="5.56" length="9.39" shape="4304.97,441.24 4306.82,432.03"/>
    </edge>
    <edge id=":1221654512_7" function="internal">
        <lane id=":1221654512_7_0" index="0" allow="delivery bicycle pedestrian" speed="5.56" length="10.27" shape="4304.97,441.24 4305.93,438.62 4307.51,436.92 4309.71,436.14 4312.53,436.28"/>
    </edge>
    <edge id=":1221654512_8" function="internal">
        <lane id=":1221654512_8_0" index="0" allow="delivery bicycle pedestrian" speed="5.56" length="4.82" shape="4304.97,441.24 4306.03,440.20 4306.92,439.97 4307.64,440.54 4308.19,441.93"/>
    </edge>
    <edge id=":1221654579_0" function="internal">
        <lane id=":1221654579_0_0" index="0" allow="delivery bicycle pedestrian" speed="5.56" length="4.99" shape="4261.89,507.98 4260.97,506.98 4259.94,506.51 4258.81,506.57 4257.58,507.17"/>
    </edge>
    <edge id=":1221654579_1" function="internal">
        <lane id=":1221654579_1_0" index="0" allow="delivery bicycle pedestrian" speed="5.56" length="9.47" shape="4261.89,507.98 4256.59,500.13"/>
    </edge>
    <edge id=":1221654579_2" function="internal">
        <lane id=":1221654579_2_0" index="0" allow="delivery bicycle pedestrian" speed="5.56" length="4.82" shape="4261.89,507.98 4261.87,506.49 4262.32,505.69 4263.23,505.56 4264.61,506.11"/>
    </edge>
    <edge id=":1221654579_3" function="internal">
        <lane id=":1221654579_3_0" index="0" allow="delivery bicycle pedestrian" speed="5.56" length="9.41" shape="4259.34,498.31 4264.61,506.11"/>
    </edge>
    <edge id=":1221654579_4" function="internal">
        <lane id=":1221654579_4_0" index="0" allow="delivery bicycle pedestrian" speed="5.56" length="10.28" shape="4259.34,498.31 4260.55,500.85 4260.66,503.17 4259.67,505.28 4257.58,507.17"/>
    </edge>
    <edge id=":1221654579_5" function="internal">
        <lane id=":1221654579_5_0" index="0" allow="delivery bicycle pedestrian" speed="5.56" length="4.82" shape="4259.34,498.31 4259.34,499.79 4258.88,500.59 4257.96,500.71 4256.59,500.13"/>
    </edge>
    <edge id=":1221654579_6" function="internal">
        <lane id=":1221654579_6_0" index="0" allow="delivery bicycle pedestrian" speed="5.56" length="4.99" shape="4255.74,504.43 4256.75,503.51 4257.23,502.49 4257.18,501.36 4256.59,500.13"/>
    </edge>
    <edge id=":1221654579_7" function="internal">
        <lane id=":1221654579_7_0" index="0" allow="delivery bicycle pedestrian" speed="5.56" length="10.28" shape="4255.74,504.43 4258.27,503.20 4260.59,503.07 4262.71,504.04 4264.61,506.11"/>
    </edge>
    <edge id=":1221654579_8" function="internal">
        <lane id=":1221654579_8_0" index="0" allow="delivery bicycle pedestrian" speed="5.56" length="4.82" shape="4255.74,504.43 4257.23,504.42 4258.03,504.88 4258.15,505.79 4257.58,507.17"/>
    </edge>
    <edge id=":1221654790_0" function="internal">
        <lane id=":1221654790_0_0" index="0" allow="delivery bicycle pedestrian" speed="5.56" length="9.50" shape="4316.84,397.08 4315.07,406.41"/>
    </edge>
    <edge id=":1221654790_1" function="internal">
        <lane id=":1221654790_1_0" index="0" allow="delivery bicycle pedestrian" speed="5.56" length="10.32" shape="4316.84,397.08 4315.93,399.75 4314.37,401.49 4312.18,402.30 4309.36,402.17"/>
    </edge>
    <edge id=":1221654790_2" function="internal">
        <lane id=":1221654790_2_0" index="0" allow="delivery bicycle pedestrian" speed="5.56" length="4.82" shape="4316.84,397.08 4315.80,398.14 4314.91,398.39 4314.18,397.83 4313.60,396.46"/>
    </edge>
    <edge id=":1221654790_3" function="internal">
        <lane id=":1221654790_3_0" index="0" allow="delivery bicycle pedestrian" speed="5.56" length="5.00" shape="4309.97,398.92 4311.34,398.99 4312.40,398.60 4313.16,397.75 4313.60,396.46"/>
    </edge>
    <edge id=":1221654790_4" function="internal">
        <lane id=":1221654790_4_0" index="0" allow="delivery bicycle pedestrian" speed="5.56" length="10.32" shape="4309.97,398.92 4312.65,399.84 4314.39,401.39 4315.20,403.58 4315.07,406.41"/>
    </edge>
    <edge id=":1221654790_5" function="internal">
        <lane id=":1221654790_5_0" index="0" allow="delivery bicycle pedestrian" speed="5.56" length="4.82" shape="4309.97,398.92 4311.04,399.97 4311.29,400.85 4310.73,401.59 4309.36,402.17"/>
    </edge>
    <edge id=":1221654790_6" function="internal">
        <lane id=":1221654790_6_0" index="0" allow="delivery bicycle pedestrian" speed="5.56" length="5.00" shape="4311.82,405.79 4311.89,404.42 4311.50,403.36 4310.65,402.61 4309.36,402.17"/>
    </edge>
    <edge id=":1221654790_7" function="internal">
        <lane id=":1221654790_7_0" index="0" allow="delivery bicycle pedestrian" speed="5.56" length="9.50" shape="4311.82,405.79 4313.60,396.46"/>
    </edge>
    <edge id=":1221654790_8" function="internal">
        <lane id=":1221654790_8_0" index="0" allow="delivery bicycle pedestrian" speed="5.56" length="4.82" shape="4311.82,405.79 4312.87,404.73 4313.75,404.48 4314.49,405.04 4315.07,406.41"/>
    </edge>
    <edge id=":1221655181_0" function="internal">
        <lane id=":1221655181_0_0" index="0" allow="delivery bicycle pedestrian" speed="5.56" length="4.82" shape="4364.08,386.41 4365.15,385.37 4366.04,385.15 4366.76,385.72 4367.30,387.11"/>
    </edge>
    <edge id=":1221655210_0" function="internal">
        <lane id=":1221655210_0_0" index="0" allow="delivery bicycle pedestrian" speed="5.56" length="4.82" shape="4212.96,506.03 4214.01,504.97 4214.90,504.73 4215.63,505.29 4216.20,506.66"/>
    </edge>
    <edge id=":1221655443_0" function="internal">
        <lane id=":1221655443_0_0" index="0" allow="delivery bicycle pedestrian" speed="9.73" length="6.34" shape="4324.94,370.94 4323.69,371.26 4322.64,372.12 4321.79,373.52 4321.15,375.47"/>
    </edge>
    <edge id=":1221655443_1" function="internal">
        <lane id=":1221655443_1_0" index="0" disallow="tram rail_urban rail rail_electric ship" speed="13.89" length="9.77" shape="4324.94,370.94 4315.18,371.30"/>
    </edge>
    <edge id=":1221655443_2" function="internal">
        <lane id=":1221655443_2_0" index="0" disallow="tram rail_urban rail rail_electric ship" speed="13.89" length="2.41" shape="4324.94,370.94 4323.68,370.15 4323.24,369.34"/>
    </edge>
    <edge id=":1221655443_9" function="internal">
        <lane id=":1221655443_9_0" index="0" speed="13.89" length="2.41" shape="4323.24,369.34 4323.62,368.51 4324.83,367.64"/>
    </edge>
    <edge id=":1221655443_3" function="internal">
        <lane id=":1221655443_3_0" index="0" disallow="tram rail_urban rail rail_electric ship" speed="13.89" length="9.79" shape="4315.05,368.01 4324.83,367.64"/>
    </edge>
    <edge id=":1221655443_4" function="internal">
        <lane id=":1221655443_4_0" index="0" allow="delivery bicycle pedestrian" speed="9.73" length="5.57" shape="4315.05,368.01 4318.43,368.35 4320.26,369.51"/>
    </edge>
    <edge id=":1221655443_5" function="internal">
        <lane id=":1221655443_5_0" index="0" disallow="tram rail_urban rail rail_electric ship" speed="13.89" length="2.41" shape="4315.05,368.01 4316.32,368.78 4316.76,369.59"/>
    </edge>
    <edge id=":1221655443_10" function="internal">
        <lane id=":1221655443_10_0" index="0" speed="9.73" length="6.31" shape="4320.26,369.51 4320.57,369.71 4321.48,372.08 4321.15,375.47"/>
    </edge>
    <edge id=":1221655443_11" function="internal">
        <lane id=":1221655443_11_0" index="0" speed="13.89" length="2.41" shape="4316.76,369.59 4316.38,370.43 4315.18,371.30"/>
    </edge>
    <edge id=":1221655443_6" function="internal">
        <lane id=":1221655443_6_0" index="0" disallow="tram rail_urban rail rail_electric ship" speed="9.73" length="5.38" shape="4317.94,374.68 4318.09,373.15 4317.68,372.08 4316.71,371.46 4315.18,371.30"/>
    </edge>
    <edge id=":1221655443_7" function="internal">
        <lane id=":1221655443_7_0" index="0" disallow="tram rail_urban rail rail_electric ship" speed="9.73" length="10.64" shape="4317.94,374.68 4319.00,371.67 4320.50,369.49 4322.45,368.15 4324.83,367.64"/>
    </edge>
    <edge id=":1221655443_8" function="internal">
        <lane id=":1221655443_8_0" index="0" allow="delivery bicycle pedestrian" speed="5.56" length="4.82" shape="4317.94,374.68 4319.04,373.67 4319.94,373.47 4320.64,374.07 4321.15,375.47"/>
    </edge>
    <edge id=":1221655502_0" function="internal">
        <lane id=":1221655502_0_0" index="0" allow="delivery bicycle pedestrian" speed="5.56" length="9.19" shape="4292.97,513.35 4291.33,522.40"/>
    </edge>
    <edge id=":1221655502_1" function="internal">
        <lane id=":1221655502_1_0" index="0" allow="delivery bicycle pedestrian" speed="5.56" length="10.17" shape="4292.97,513.35 4292.01,515.95 4290.45,517.65 4288.29,518.45 4285.51,518.35"/>
    </edge>
    <edge id=":1221655502_2" function="internal">
        <lane id=":1221655502_2_0" index="0" allow="delivery bicycle pedestrian" speed="5.56" length="4.82" shape="4292.97,513.35 4291.90,514.39 4291.01,514.62 4290.29,514.04 4289.74,512.66"/>
    </edge>
    <edge id=":1221655502_3" function="internal">
        <lane id=":1221655502_3_0" index="0" allow="delivery bicycle pedestrian" speed="5.56" length="4.98" shape="4286.09,515.10 4287.45,515.15 4288.51,514.76 4289.27,513.93 4289.74,512.66"/>
    </edge>
    <edge id=":1221655502_4" function="internal">
        <lane id=":1221655502_4_0" index="0" allow="delivery bicycle pedestrian" speed="5.56" length="10.18" shape="4286.09,515.10 4288.73,515.97 4290.48,517.47 4291.35,519.62 4291.33,522.40"/>
    </edge>
    <edge id=":1221655502_5" function="internal">
        <lane id=":1221655502_5_0" index="0" allow="delivery bicycle pedestrian" speed="5.56" length="4.82" shape="4286.09,515.10 4287.16,516.13 4287.42,517.02 4286.87,517.76 4285.51,518.35"/>
    </edge>
    <edge id=":1221655502_6" function="internal">
        <lane id=":1221655502_6_0" index="0" allow="delivery bicycle pedestrian" speed="5.56" length="4.97" shape="4288.07,521.91 4288.08,520.55 4287.65,519.51 4286.80,518.77 4285.51,518.35"/>
    </edge>
    <edge id=":1221655502_7" function="internal">
        <lane id=":1221655502_7_0" index="0" allow="delivery bicycle pedestrian" speed="5.56" length="9.40" shape="4288.07,521.91 4289.74,512.66"/>
    </edge>
    <edge id=":1221655502_8" function="internal">
        <lane id=":1221655502_8_0" index="0" allow="delivery bicycle pedestrian" speed="5.56" length="4.82" shape="4288.07,521.91 4289.07,520.81 4289.94,520.52 4290.70,521.05 4291.33,522.40"/>
    </edge>
    <edge id=":1221656469_0" function="internal">
        <lane id=":1221656469_0_0" index="0" allow="delivery bicycle pedestrian" speed="5.56" length="5.01" shape="4314.77,543.52 4313.39,543.48 4312.34,543.88 4311.60,544.74 4311.18,546.05"/>
    </edge>
    <edge id=":1221656469_1" function="internal">
        <lane id=":1221656469_1_0" index="0" allow="delivery bicycle pedestrian" speed="5.56" length="9.76" shape="4314.77,543.52 4312.55,542.77 4310.82,541.36 4309.58,539.31 4308.82,536.62"/>
    </edge>
    <edge id=":1221656469_2" function="internal">
        <lane id=":1221656469_2_0" index="0" allow="delivery bicycle pedestrian" speed="5.56" length="4.82" shape="4314.77,543.52 4313.69,542.49 4313.43,541.61 4313.98,540.87 4315.34,540.27"/>
    </edge>
    <edge id=":1221656469_3" function="internal">
        <lane id=":1221656469_3_0" index="0" allow="delivery bicycle pedestrian" speed="5.56" length="5.03" shape="4312.20,536.79 4312.59,538.14 4313.24,539.17 4314.16,539.88 4315.34,540.27"/>
    </edge>
    <edge id=":1221656469_4" function="internal">
        <lane id=":1221656469_4_0" index="0" allow="delivery bicycle pedestrian" speed="5.56" length="9.42" shape="4312.20,536.79 4312.48,539.53 4312.28,541.42 4311.78,543.31 4311.18,546.05"/>
    </edge>
    <edge id=":1221656469_5" function="internal">
        <lane id=":1221656469_5_0" index="0" allow="delivery bicycle pedestrian" speed="5.56" length="4.94" shape="4312.20,536.79 4311.29,538.01 4310.43,538.39 4309.60,537.93 4308.82,536.62"/>
    </edge>
    <edge id=":1221656469_6" function="internal">
        <lane id=":1221656469_6_0" index="0" allow="delivery bicycle pedestrian" speed="5.56" length="9.02" shape="4307.93,545.50 4308.49,542.87 4308.94,541.06 4309.11,539.24 4308.82,536.62"/>
    </edge>
    <edge id=":1221656469_7" function="internal">
        <lane id=":1221656469_7_0" index="0" allow="delivery bicycle pedestrian" speed="5.56" length="10.35" shape="4307.93,545.50 4308.80,542.79 4310.32,541.02 4312.50,540.18 4315.34,540.27"/>
    </edge>
    <edge id=":1221656469_8" function="internal">
        <lane id=":1221656469_8_0" index="0" allow="delivery bicycle pedestrian" speed="5.56" length="4.82" shape="4307.93,545.50 4308.95,544.42 4309.83,544.15 4310.58,544.69 4311.18,546.05"/>
    </edge>
    <edge id=":1318890443_0" function="internal">
        <lane id=":1318890443_0_0" index="0" disallow="tram rail_urban rail rail_electric ship" speed="13.89" length="12.36" shape="4332.22,1247.27 4329.89,1244.88 4327.92,1242.83 4326.03,1240.70 4323.97,1238.08"/>
    </edge>
    <edge id=":1318890443_1" function="internal">
        <lane id=":1318890443_1_0" index="0" disallow="tram rail_urban rail rail_electric ship" speed="13.89" length="6.92" shape="4332.22,1247.27 4329.14,1243.22 4328.91,1241.40"/>
    </edge>
    <edge id=":1318890443_2" function="internal">
        <lane id=":1318890443_2_0" index="0" disallow="tram rail_urban rail rail_electric ship" speed="13.89" length="2.41" shape="4332.22,1247.27 4331.96,1245.81 4332.27,1244.94"/>
    </edge>
    <edge id=":1318890443_9" function="internal">
        <lane id=":1318890443_9_0" index="0" speed="13.89" length="9.14" shape="4328.91,1241.40 4328.77,1240.30 4331.11,1238.52 4336.16,1237.89"/>
    </edge>
    <edge id=":1318890443_10" function="internal">
        <lane id=":1318890443_10_0" index="0" speed="13.89" length="2.41" shape="4332.27,1244.94 4333.15,1244.67 4334.60,1244.99"/>
    </edge>
    <edge id=":1318890443_3" function="internal">
        <lane id=":1318890443_3_0" index="0" disallow="tram rail_urban rail rail_electric ship" speed="13.89" length="6.51" shape="4336.20,1241.19 4334.15,1241.44 4333.20,1242.17 4333.35,1243.35 4334.60,1244.99"/>
    </edge>
    <edge id=":1318890443_4" function="internal">
        <lane id=":1318890443_4_0" index="0" disallow="tram rail_urban rail rail_electric ship" speed="13.89" length="12.97" shape="4336.20,1241.19 4331.74,1241.03 4328.22,1240.46 4325.63,1239.48 4323.97,1238.08"/>
    </edge>
    <edge id=":1318890443_5" function="internal">
        <lane id=":1318890443_5_0" index="0" disallow="tram rail_urban rail rail_electric ship" speed="13.89" length="4.82" shape="4336.20,1241.19 4334.95,1240.37 4334.53,1239.55 4334.94,1238.72 4336.16,1237.89"/>
    </edge>
    <edge id=":1318890443_6" function="internal">
        <lane id=":1318890443_6_0" index="0" disallow="tram rail_urban rail rail_electric ship" speed="13.89" length="9.90" shape="4326.63,1236.11 4327.74,1236.92 4329.70,1237.49 4332.51,1237.81 4336.16,1237.89"/>
    </edge>
    <edge id=":1318890443_7" function="internal">
        <lane id=":1318890443_7_0" index="0" disallow="tram rail_urban rail rail_electric ship" speed="13.89" length="11.95" shape="4326.63,1236.11 4328.64,1238.69 4330.43,1240.70 4332.31,1242.65 4334.60,1244.99"/>
    </edge>
    <edge id=":1318890443_8" function="internal">
        <lane id=":1318890443_8_0" index="0" disallow="tram rail_urban rail rail_electric ship" speed="13.89" length="2.41" shape="4326.63,1236.11 4326.70,1237.60 4326.28,1238.42"/>
    </edge>
    <edge id=":1318890443_11" function="internal">
        <lane id=":1318890443_11_0" index="0" speed="13.89" length="2.41" shape="4326.28,1238.42 4325.37,1238.58 4323.97,1238.08"/>
    </edge>
    <edge id=":1326930803_0" function="internal">
        <lane id=":1326930803_0_0" index="0" allow="delivery bicycle pedestrian" speed="5.56" length="5.20" shape="4266.75,825.45 4265.61,824.69 4264.47,824.50 4263.33,824.88 4262.18,825.82"/>
    </edge>
    <edge id=":1326930803_1" function="internal">
        <lane id=":1326930803_1_0" index="0" allow="delivery bicycle pedestrian" speed="5.56" length="9.60" shape="4266.75,825.45 4259.46,819.20"/>
    </edge>
    <edge id=":1326930803_2" function="internal">
        <lane id=":1326930803_2_0" index="0" allow="delivery bicycle pedestrian" speed="5.56" length="10.30" shape="4266.75,825.45 4264.97,823.29 4264.26,821.06 4264.63,818.73 4266.08,816.33"/>
    </edge>
    <edge id=":1326930803_3" function="internal">