<?xml version="1.0" encoding="UTF-8"?>
<!-- generated on 2017-11-02 19:31:56.095242 by $Id: route2trips.py 26301 2017-10-02 20:48:38Z behrisch $ via randomTrips.py
  options: 
-->
<routes xmlns:xsi="http://www.w3.org/2001/XMLSchema-instance" xsi:noNamespaceSchemaLocation="http://sumo.dlr.de/xsd/routes_file.xsd">
    <vType id="passenger" speedFactor="normc(1.00,0.10,0.20,2.00)" vClass="passenger">
    </vType>
    <trip id="veh0" depart="0.00" departLane="best" from="33682822#5" to="-118631280#0" type="passenger"/>
    <trip id="veh1" depart="15.09" departLane="best" from="-5364475" to="-33708056#1" type="passenger"/>
    <trip id="veh2" depart="30.19" departLane="best" from="477791960#2" to="33682821" type="passenger"/>
    <trip id="veh3" depart="45.28" departLane="best" from="69329625" to="-138290305" type="passenger"/>
    <trip id="veh4" depart="60.38" departLane="best" from="118611605#0" to="-118631280#3" type="passenger"/>
    <trip id="veh6" depart="90.57" departLane="best" from="-118614121" to="-33696904#0" type="passenger"/>
    <trip id="veh7" depart="105.66" departLane="best" from="33696902#0" to="118614121" type="passenger"/>
    <trip id="veh8" depart="120.76" departLane="best" from="-51012854#2" to="138017447#2" type="passenger"/>
    <trip id="veh9" depart="135.85" departLane="best" from="5364484#0" to="-118611605#1" type="passenger"/>
    <trip id="veh11" depart="166.04" departLane="best" from="-69329625" to="-263554594" type="passenger"/>
    <trip id="veh13" depart="196.23" departLane="best" from="69323540#1" to="138290301#2" type="passenger"/>
    <trip id="veh15" depart="226.42" departLane="best" from="138964140#2" to="74816879" type="passenger"/>
    <trip id="veh16" depart="241.52" departLane="best" from="-69600627#9" to="118628034#0" type="passenger"/>
    <trip id="veh18" depart="271.71" departLane="best" from="35389138#1" to="-138139938#0" type="passenger"/>
    <trip id="veh19" depart="286.80" departLane="best" from="-5312405#2" to="-51012849#0" type="passenger"/>
    <trip id="veh21" depart="316.99" departLane="best" from="33682822#1" to="-69323539" type="passenger"/>
    <trip id="veh22" depart="332.09" departLane="best" from="-69600627#4" to="-33696906#1" type="passenger"/>
    <trip id="veh23" depart="347.18" departLane="best" from="33682823#1" to="138964140#2" type="passenger"/>
    <trip id="veh24" depart="362.28" departLane="best" from="-35202667#3" to="35202667#0" type="passenger"/>
    <trip id="veh25" depart="377.37" departLane="best" from="-33708057#5" to="-69329600#0" type="passenger"/>
    <trip id="veh26" depart="392.47" departLane="best" from="74816894#0" to="203756782#3" type="passenger"/>
    <trip id="veh27" depart="407.56" departLane="best" from="17187928#0" to="33682823#1" type="passenger"/>
    <trip id="veh28" depart="422.66" departLane="best" from="69323540#0" to="477791961#1" type="passenger"/>
    <trip id="veh29" depart="437.75" departLane="best" from="-5312405#2" to="-118631280#4" type="passenger"/>
    <trip id="veh31" depart="467.94" departLane="best" from="-477791961#1" to="69329629#3" type="passenger"/>
    <trip id="veh33" depart="498.13" departLane="best" from="33696904#0" to="-69329616" type="passenger"/>
    <trip id="veh34" depart="513.23" departLane="best" from="69600627#12" to="-72449422" type="passenger"/>
    <trip id="veh35" depart="528.32" departLane="best" from="-5364447#2" to="-368374359" type="passenger"/>
    <trip id="veh36" depart="543.42" departLane="best" from="17187928#5" to="-374366365#4" type="passenger"/>
    <trip id="veh38" depart="573.61" departLane="best" from="-74816894#1" to="-33707174" type="passenger"/>
    <trip id="veh39" depart="588.70" departLane="best" from="75654228" to="-74816894#0" type="passenger"/>
    <trip id="veh40" depart="603.80" departLane="best" from="-203756782#1" to="-138139938#2" type="passenger"/>
    <trip id="veh41" depart="618.89" departLane="best" from="-29987290#1" to="17187928#2" type="passenger"/>
    <trip id="veh42" depart="633.99" departLane="best" from="5364412#1" to="-69329627#0" type="passenger"/>
    <trip id="veh43" depart="649.08" departLane="best" from="-138290301#2" to="-69329600#0" type="passenger"/>
    <trip id="veh44" depart="664.18" departLane="best" from="75654228" to="118611608#1" type="passenger"/>
    <trip id="veh45" depart="679.27" departLane="best" from="74816885" to="5364482" type="passenger"/>
    <trip id="veh46" depart="694.37" departLane="best" from="-118611608#1" to="33708057#3" type="passenger"/>
    <trip id="veh47" depart="709.46" departLane="best" from="33708057#0" to="118611610#0" type="passenger"/>
    <trip id="veh48" depart="724.56" departLane="best" from="-5364447#2" to="203756782#4" type="passenger"/>
    <trip id="veh49" depart="739.65" departLane="best" from="-29987290#1" to="-69329629#2" type="passenger"/>
    <trip id="veh50" depart="754.75" departLane="best" from="118631280#3" to="69600627#5" type="passenger"/>
    <trip id="veh52" depart="784.94" departLane="best" from="138289835" to="-33682822#3" type="passenger"/>
    <trip id="veh53" depart="800.03" departLane="best" from="69600627#0" to="69231138#1" type="passenger"/>
    <trip id="veh54" depart="815.12" departLane="best" from="-69329613#0" to="203756782#2" type="passenger"/>
    <trip id="veh55" depart="830.22" departLane="best" from="236672711" to="-204614031" type="passenger"/>
    <trip id="veh56" depart="845.31" departLane="best" from="523111036" to="118611610#1" type="passenger"/>
    <trip id="veh57" depart="860.41" departLane="best" from="5312405#4" to="118611608#1" type="passenger"/>
    <trip id="veh58" depart="875.50" departLane="best" from="-118611610#2" to="69329627#1" type="passenger"/>
    <trip id="veh60" depart="905.69" departLane="best" from="-69329615#1" to="-138289827" type="passenger"/>
    <trip id="veh62" depart="935.88" departLane="best" from="-173920476#0" to="-74816878#0" type="passenger"/>
    <trip id="veh63" depart="950.98" departLane="best" from="-138964140#2" to="462149208" type="passenger"/>
    <trip id="veh64" depart="966.07" departLane="best" from="523111039#0" to="-17187928#5" type="passenger"/>
    <trip id="veh65" depart="981.17" departLane="best" from="138139938#2" to="118614121" type="passenger"/>
    <trip id="veh66" depart="996.26" departLane="best" from="118611605#1" to="-33696906#2" type="passenger"/>
    <trip id="veh67" depart="1011.36" departLane="best" from="14204527#1" to="35202667#1" type="passenger"/>
    <trip id="veh68" depart="1026.45" departLane="best" from="-477791960#3" to="-5312405#4" type="passenger"/>
    <trip id="veh69" depart="1041.55" departLane="best" from="75654228" to="204614032" type="passenger"/>
    <trip id="veh70" depart="1056.64" departLane="best" from="-33682823#1" to="-33708057#1" type="passenger"/>
    <trip id="veh71" depart="1071.74" departLane="best" from="-69329624#4" to="138017447#2" type="passenger"/>
    <trip id="veh72" depart="1086.83" departLane="best" from="-5312405#3" to="-33708056#0" type="passenger"/>
    <trip id="veh73" depart="1101.93" departLane="best" from="-14204527#0" to="173920476#0" type="passenger"/>
    <trip id="veh74" depart="1117.02" departLane="best" from="69329603#0" to="-138290301#0" type="passenger"/>
    <trip id="veh75" depart="1132.12" departLane="best" from="-5312405#8" to="29987290#0" type="passenger"/>
    <trip id="veh77" depart="1162.31" departLane="best" from="72449431" to="1217382#0" type="passenger"/>
    <trip id="veh79" depart="1192.50" departLane="best" from="-203756782#5" to="-69329628#1" type="passenger"/>
    <trip id="veh80" depart="1207.59" departLane="best" from="118611606" to="-72449432#0" type="passenger"/>
    <trip id="veh81" depart="1222.69" departLane="best" from="374366365#7" to="29987290#1" type="passenger"/>
    <trip id="veh82" depart="1237.78" departLane="best" from="74816887" to="-138964140#1" type="passenger"/>
    <trip id="veh84" depart="1267.97" departLane="best" from="69329603#1" to="-368374359" type="passenger"/>
    <trip id="veh85" depart="1283.07" departLane="best" from="-462149208" to="-69600627#3" type="passenger"/>
    <trip id="veh86" depart="1298.16" departLane="best" from="118611605#0" to="-477791961#0" type="passenger"/>
    <trip id="veh87" depart="1313.26" departLane="best" from="-5364412#5" to="69329625" type="passenger"/>
    <trip id="veh88" depart="1328.35" departLane="best" from="118628034#0" to="5364482" type="passenger"/>
    <trip id="veh89" depart="1343.45" departLane="best" from="154411011" to="-138287711" type="passenger"/>
    <trip id="veh90" depart="1358.54" departLane="best" from="98727901" to="5364413" type="passenger"/>
    <trip id="veh91" depart="1373.64" departLane="best" from="74816885" to="69329627#0" type="passenger"/>
    <trip id="veh92" depart="1388.73" departLane="best" from="69323540#2" to="-283487903" type="passenger"/>
    <trip id="veh93" depart="1403.83" departLane="best" from="138289827" to="-33696906#3" type="passenger"/>
    <trip id="veh94" depart="1418.92" departLane="best" from="-74816894#1" to="-138289827" type="passenger"/>
    <trip id="veh95" depart="1434.02" departLane="best" from="-5364447#2" to="51012849#1" type="passenger"/>
    <trip id="veh96" depart="1449.11" departLane="best" from="118631280#4" to="-69329627#0" type="passenger"/>
    <trip id="veh97" depart="1464.21" departLane="best" from="74816878#0" to="75589354" type="passenger"/>
    <trip id="veh98" depart="1479.30" departLane="best" from="17187928#0" to="33708057#0" type="passenger"/>
    <trip id="veh99" depart="1494.40" departLane="best" from="-33708056#1" to="-51012854#0" type="passenger"/>
    <trip id="veh100" depart="1509.49" departLane="best" from="74816885" to="1217382#2" type="passenger"/>
    <trip id="veh102" depart="1539.68" departLane="best" from="-138139938#0" to="138017447#2" type="passenger"/>
    <trip id="veh103" depart="1554.78" departLane="best" from="-33708057#1" to="72449422" type="passenger"/>
    <trip id="veh105" depart="1584.97" departLane="best" from="22634728#0" to="29987290#1" type="passenger"/>
    <trip id="veh106" depart="1600.06" departLane="best" from="-5312405#6" to="-17187928#0" type="passenger"/>
    <trip id="veh107" depart="1615.15" departLane="best" from="69329624#4" to="-368374359" type="passenger"/>
    <trip id="veh109" depart="1645.34" departLane="best" from="117884767#1" to="138017447#1" type="passenger"/>
    <trip id="veh110" depart="1660.44" departLane="best" from="138290308" to="69329628#2" type="passenger"/>
    <trip id="veh111" depart="1675.53" departLane="best" from="-477791960#3" to="33708056#1" type="passenger"/>
    <trip id="veh112" depart="1690.63" departLane="best" from="-5364409#0" to="-69329616" type="passenger"/>
    <trip id="veh113" depart="1705.72" departLane="best" from="33696906#3" to="-5312405#0" type="passenger"/>
    <trip id="veh115" depart="1735.91" departLane="best" from="-14204527#1" to="-69600627#9" type="passenger"/>
    <trip id="veh116" depart="1751.01" departLane="best" from="75654228" to="75589354" type="passenger"/>
    <trip id="veh117" depart="1766.10" departLane="best" from="-5364447#2" to="69329628#1" type="passenger"/>
    <trip id="veh118" depart="1781.20" departLane="best" from="69323538" to="33696906#0" type="passenger"/>
    <trip id="veh119" depart="1796.29" departLane="best" from="236672713" to="751532" type="passenger"/>
    <trip id="veh120" depart="1811.39" departLane="best" from="33696903" to="-118611606" type="passenger"/>
    <trip id="veh121" depart="1826.48" departLane="best" from="69228022#0" to="-51012854#1" type="passenger"/>
    <trip id="veh122" depart="1841.58" departLane="best" from="33696905#0" to="69329629#3" type="passenger"/>
    <trip id="veh123" depart="1856.67" departLane="best" from="-33696903" to="-154411011" type="passenger"/>
    <trip id="veh124" depart="1871.77" departLane="best" from="-29987290#1" to="118628034#0" type="passenger"/>
    <trip id="veh125" depart="1886.86" departLane="best" from="374366365#0" to="-33696905#0" type="passenger"/>
    <trip id="veh126" depart="1901.96" departLane="best" from="33682822#0" to="-374366365#5" type="passenger"/>
    <trip id="veh127" depart="1917.05" departLane="best" from="138289827" to="69329623#0" type="passenger"/>
    <trip id="veh128" depart="1932.15" departLane="best" from="69323540#0" to="-138964140#0" type="passenger"/>
    <trip id="veh129" depart="1947.24" departLane="best" from="118611606" to="-477791960#1" type="passenger"/>
    <trip id="veh130" depart="1962.34" departLane="best" from="-117884767#1" to="477791960#3" type="passenger"/>
    <trip id="veh131" depart="1977.43" departLane="best" from="33682822#3" to="-374366365#4" type="passenger"/>
    <trip id="veh134" depart="2022.72" departLane="best" from="69329628#2" to="118614121" type="passenger"/>
    <trip id="veh135" depart="2037.81" departLane="best" from="69323538" to="138017447#0" type="passenger"/>
    <trip id="veh136" depart="2052.91" departLane="best" from="-33696907" to="-17187928#5" type="passenger"/>
    <trip id="veh138" depart="2083.10" departLane="best" from="5364446#0" to="5364482" type="passenger"/>
    <trip id="veh139" depart="2098.19" departLane="best" from="69329628#0" to="-33696906#1" type="passenger"/>
    <trip id="veh140" depart="2113.29" departLane="best" from="-5364412#5" to="-14204527#1" type="passenger"/>
    <trip id="veh141" depart="2128.38" departLane="best" from="5312405#5" to="69329613#1" type="passenger"/>
    <trip id="veh143" depart="2158.57" departLane="best" from="-33708056#1" to="69329627#1" type="passenger"/>
    <trip id="veh144" depart="2173.67" departLane="best" from="69329615#0" to="74816884#0" type="passenger"/>
    <trip id="veh145" depart="2188.76" departLane="best" from="5364484#1" to="69329613#0" type="passenger"/>
    <trip id="veh146" depart="2203.86" departLane="best" from="-118614121" to="35389138#2" type="passenger"/>
    <trip id="veh147" depart="2218.95" departLane="best" from="-69329624#0" to="69329627#1" type="passenger"/>
    <trip id="veh148" depart="2234.05" departLane="best" from="5364474" to="5364484#0" type="passenger"/>
    <trip id="veh150" depart="2264.24" departLane="best" from="69329619#2" to="5364482" type="passenger"/>
    <trip id="veh152" depart="2294.43" departLane="best" from="118724181" to="-5312405#0" type="passenger"/>
    <trip id="veh153" depart="2309.52" departLane="best" from="5364446#0" to="-33708057#3" type="passenger"/>
    <trip id="veh154" depart="2324.62" departLane="best" from="-118614121" to="-33696902#1" type="passenger"/>
    <trip id="veh155" depart="2339.71" departLane="best" from="-69329623#3" to="5364484#0" type="passenger"/>
    <trip id="veh156" depart="2354.81" departLane="best" from="74816885" to="-477791961#0" type="passenger"/>
    <trip id="veh157" depart="2369.90" departLane="best" from="33682823#0" to="-69329619#2" type="passenger"/>
    <trip id="veh158" depart="2385.00" departLane="best" from="74816887" to="118611609" type="passenger"/>
    <trip id="veh159" depart="2400.09" departLane="best" from="72449432#0" to="-154411011" type="passenger"/>
    <trip id="veh160" depart="2415.18" departLane="best" from="74816885" to="-33682822#3" type="passenger"/>
    <trip id="veh161" depart="2430.28" departLane="best" from="74816883" to="-374366365#6" type="passenger"/>
    <trip id="veh162" depart="2445.37" departLane="best" from="-29987290#1" to="-69329629#2" type="passenger"/>
    <trip id="veh163" depart="2460.47" departLane="best" from="374366365#7" to="-5312405#6" type="passenger"/>
    <trip id="veh164" depart="2475.56" departLane="best" from="236324347" to="-74816894#0" type="passenger"/>
    <trip id="veh165" depart="2490.66" departLane="best" from="-72449434#1" to="1217382#2" type="passenger"/>
    <trip id="veh166" depart="2505.75" departLane="best" from="-5364413" to="33696906#3" type="passenger"/>
    <trip id="veh167" depart="2520.85" departLane="best" from="-117884767#0" to="69329627#0" type="passenger"/>
    <trip id="veh168" depart="2535.94" departLane="best" from="14204527#1" to="33708057#2" type="passenger"/>
    <trip id="veh170" depart="2566.13" departLane="best" from="-69600627#12" to="-138290301#0" type="passenger"/>
    <trip id="veh171" depart="2581.23" departLane="best" from="33696905#1" to="-5364447#1" type="passenger"/>
    <trip id="veh172" depart="2596.32" departLane="best" from="-69329619#2" to="5364447#2" type="passenger"/>
    <trip id="veh173" depart="2611.42" departLane="best" from="374366365#0" to="-5312405#0" type="passenger"/>
    <trip id="veh174" depart="2626.51" departLane="best" from="-74816894#1" to="-51012853" type="passenger"/>
    <trip id="veh175" depart="2641.61" departLane="best" from="-33682824#1" to="-69329625" type="passenger"/>
    <trip id="veh176" depart="2656.70" departLane="best" from="72449432#0" to="33682821" type="passenger"/>
    <trip id="veh178" depart="2686.89" departLane="best" from="-69329613#2" to="118614121" type="passenger"/>
    <trip id="veh180" depart="2717.08" departLane="best" from="118611608#0" to="138017446" type="passenger"/>
    <trip id="veh181" depart="2732.18" departLane="best" from="33696904#0" to="-72449431" type="passenger"/>
    <trip id="veh182" depart="2747.27" departLane="best" from="118628034#0" to="-33696906#3" type="passenger"/>
    <trip id="veh184" depart="2777.46" departLane="best" from="5364446#0" to="-33682821" type="passenger"/>
    <trip id="veh185" depart="2792.56" departLane="best" from="-17187928#5" to="-75654228" type="passenger"/>
    <trip id="veh187" depart="2822.75" departLane="best" from="69228022#0" to="374366365#6" type="passenger"/>
    <trip id="veh188" depart="2837.84" departLane="best" from="33696907" to="-33708057#1" type="passenger"/>
    <trip id="veh189" depart="2852.94" departLane="best" from="-477791960#3" to="-118614125" type="passenger"/>
    <trip id="veh190" depart="2868.03" departLane="best" from="-5364412#1" to="-72449432#2" type="passenger"/>
    <trip id="veh191" depart="2883.13" departLane="best" from="69323540#2" to="-138290301#0" type="passenger"/>
    <trip id="veh192" depart="2898.22" departLane="best" from="-75589354" to="17187928#5" type="passenger"/>
    <trip id="veh193" depart="2913.32" departLane="best" from="-477791960#0" to="33696903" type="passenger"/>
    <trip id="veh195" depart="2943.51" departLane="best" from="33696904#0" to="-118611605#0" type="passenger"/>
    <trip id="veh197" depart="2973.70" departLane="best" from="-29987290#0" to="-69329628#0" type="passenger"/>
    <trip id="veh198" depart="2988.79" departLane="best" from="-374366365#4" to="69600627#8" type="passenger"/>
    <trip id="veh199" depart="3003.89" departLane="best" from="-5364412#5" to="5364447#2" type="passenger"/>
    <trip id="veh200" depart="3018.98" departLane="best" from="33696906#0" to="751532" type="passenger"/>
    <trip id="veh201" depart="3034.08" departLane="best" from="22634728#0" to="69600627#3" type="passenger"/>
    <trip id="veh202" depart="3049.17" departLane="best" from="69329624#4" to="14204527#1" type="passenger"/>
    <trip id="veh203" depart="3064.27" departLane="best" from="374366365#0" to="-74816887" type="passenger"/>
    <trip id="veh204" depart="3079.36" departLane="best" from="69329628#0" to="366788787" type="passenger"/>
    <trip id="veh205" depart="3094.46" departLane="best" from="138139938#2" to="-374366365#2" type="passenger"/>
    <trip id="veh206" depart="3109.55" departLane="best" from="-5364412#2" to="203756782#2" type="passenger"/>
    <trip id="veh209" depart="3154.84" departLane="best" from="-5364475" to="-5364409#1" type="passenger"/>
    <trip id="veh210" depart="3169.93" departLane="best" from="-5312405#4" to="33696902#0" type="passenger"/>
    <trip id="veh211" depart="3185.03" departLane="best" from="35389138#2" to="-138289835" type="passenger"/>
    <trip id="veh212" depart="3200.12" departLane="best" from="-751532" to="118611615" type="passenger"/>
    <trip id="veh213" depart="3215.21" departLane="best" from="-75589354" to="-33696905#2" type="passenger"/>
    <trip id="veh214" depart="3230.31" departLane="best" from="117884767#1" to="69329622" type="passenger"/>
    <trip id="veh215" depart="3245.40" departLane="best" from="203756782#6" to="33696902#1" type="passenger"/>
    <trip id="veh216" depart="3260.50" departLane="best" from="69329600#0" to="477791960#1" type="passenger"/>
    <trip id="veh217" depart="3275.59" departLane="best" from="-72449422" to="-118611605#0" type="passenger"/>
    <trip id="veh218" depart="3290.69" departLane="best" from="-69329628#2" to="374366365#7" type="passenger"/>
    <trip id="veh219" depart="3305.78" departLane="best" from="69329600#0" to="69600627#5" type="passenger"/>
    <trip id="veh220" depart="3320.88" departLane="best" from="117884767#1" to="374366365#3" type="passenger"/>
    <trip id="veh221" depart="3335.97" departLane="best" from="154411011" to="138290301#2" type="passenger"/>
    <trip id="veh223" depart="3366.16" departLane="best" from="118611610#2" to="-118631280#2" type="passenger"/>
    <trip id="veh224" depart="3381.26" departLane="best" from="-69329624#2" to="33682822#3" type="passenger"/>
    <trip id="veh225" depart="3396.35" departLane="best" from="-751532" to="-283487903" type="passenger"/>
    <trip id="veh226" depart="3411.45" departLane="best" from="1217382#0" to="-17187928#5" type="passenger"/>
    <trip id="veh227" depart="3426.54" departLane="best" from="283487903" to="-118631280#1" type="passenger"/>
    <trip id="veh228" depart="3441.64" departLane="best" from="-74816883" to="118631280#4" type="passenger"/>
    <trip id="veh229" depart="3456.73" departLane="best" from="-118614121" to="203756782#5" type="passenger"/>
    <trip id="veh230" depart="3471.83" departLane="best" from="-33696904#1" to="-72449431" type="passenger"/>
    <trip id="veh231" depart="3486.92" departLane="best" from="-1217382#2" to="-69323540#3" type="passenger"/>
    <trip id="veh233" depart="3517.11" departLane="best" from="-5364412#5" to="-138290303" type="passenger"/>
    <trip id="veh234" depart="3532.21" departLane="best" from="98727901" to="-69231138#0" type="passenger"/>
    <trip id="veh235" depart="3547.30" departLane="best" from="33696902#0" to="477791961#1" type="passenger"/>
    <trip id="veh236" depart="3562.40" departLane="best" from="33696902#1" to="374366365#8" type="passenger"/>
    <trip id="veh237" depart="3577.49" departLane="best" from="72449434#0" to="-33696904#0" type="passenger"/>
    <trip id="veh238" depart="3592.59" departLane="best" from="-118611615" to="-204614031" type="passenger"/>
</routes>
