<?xml version="1.0" encoding="UTF-8"?>

<!-- generated on Thu Nov  2 19:31:56 2017 by SUMO duarouter Version 0.30.0
<?xml version="1.0" encoding="UTF-8"?>

<configuration xmlns:xsi="http://www.w3.org/2001/XMLSchema-instance" xsi:noNamespaceSchemaLocation="http://sumo.dlr.de/xsd/duarouterConfiguration.xsd">

    <input>
        <net-file value="osm.net.xml"/>
        <route-files value="osm.bus.trips.xml"/>
    </input>

    <output>
        <output-file value="osm.bus.rou.xml"/>
    </output>

    <processing>
        <ignore-errors value="true"/>
    </processing>

    <time>
        <begin value="0"/>
        <end value="3600.0"/>
    </time>

    <report>
        <no-warnings value="true"/>
        <no-step-log value="true"/>
    </report>

</configuration>
-->

<routes xmlns:xsi="http://www.w3.org/2001/XMLSchema-instance" xsi:noNamespaceSchemaLocation="http://sumo.dlr.de/xsd/routes_file.xsd">
    <vType id="bus" vClass="bus"/>
    <vehicle id="bus0" type="bus" depart="0.00" departLane="best">
        <route edges="33682822#0 33682822#1 33682822#3 33682822#4 33682822#5 33708057#3 33708057#4 33708057#5 33708057#6 33708057#7 35202667#0 35202667#1 35202667#3 117884767#0 117884767#1 236324344 236672713 236672712 236672711 35389138#0 35389138#1 118631280#0 118631280#1 118631280#2 118631280#3 118631280#4 118631280#5 118631280#6 118631280#7 -118614125"/>
    </vehicle>
    <vehicle id="bus1" type="bus" depart="75.47" departLane="best">
        <route edges="-5364412#5 -5364412#2 -5364412#1 -5364412#0 -368374365#0 -438203825 -138139938#3 -138139938#2 -138139938#0 -33708057#7 -33708057#6 -33708057#5"/>
    </vehicle>
    <vehicle id="bus2" type="bus" depart="150.95" departLane="best">
        <route edges="-74816894#1 74816893 69600627#12 69600627#13 204614033 33708056#1 33708057#0 33708057#2 33708057#3 33708057#4 33708057#5 33708057#6 33708057#7 35202667#0 35202667#1 35202667#3 117884767#0 117884767#1 236324344 236672713 236672712 236672711 35389138#0 35389138#1 118631280#0 118631280#1 -118631280#1"/>
    </vehicle>
    <vehicle id="bus3" type="bus" depart="226.42" departLane="best">
        <route edges="-118614121 69231138#1 -69329629#0 -118631280#6 -118631280#5 -118631280#4 -118631280#3 -118631280#2 -118631280#1 -118631280#0 118631260 523111039#1 118628034#0 118628034#1 118628035 236324347 -117884767#1 -117884767#0 -35202667#3 5364484#0 33696906#0 33696906#1 -33696906#1"/>
    </vehicle>
    <vehicle id="bus4" type="bus" depart="301.90" departLane="best">
        <route edges="33682823#0 33682823#1 33682822#3 33682822#4 33682822#5 33708057#3 33708057#4 33708057#5 33708057#6 33708057#7 35202667#0 35202667#1 35202667#3 117884767#0 117884767#1 236324344 236672713 236672712 236672711 35389138#0 35389138#1 118631280#0 118631280#1 118631280#2 118631280#3 118631280#4"/>
    </vehicle>
    <vehicle id="bus5" type="bus" depart="377.37" departLane="best">
        <route edges="-477791960#1 -477791960#0 -203756782#9 -203756782#8 -203756782#6 -203756782#5 -203756782#4 -203756782#3 -203756782#2 -203756782#1 -203756782#0 -5312405#8 -5312405#7 -5312405#6 -69329628#2 51012853 -138964140#2 138964140#2"/>
    </vehicle>
    <vehicle id="bus6" type="bus" depart="452.85" departLane="best">
        <route edges="5364409#2 -5364412#0 -368374365#0 -438203825 -138139938#3 -138139938#2 -138139938#0 35202667#0 35202667#1 35202667#3 -14204527#2 -14204527#1 -118611606 -1217382#1 -1217382#0 203756782#5 5364474 -118611605#0"/>
    </vehicle>
    <vehicle id="bus7" type="bus" depart="528.32" departLane="best">
        <route edges="5364409#1 -5364409#1 -5364409#0 33708057#2 33708057#3 33708057#4 33708057#5 33708057#6 33708057#7 35202667#0 35202667#1 5364484#0 33696906#0 33696906#1"/>
    </vehicle>
    <vehicle id="bus8" type="bus" depart="603.80" departLane="best">
        <route edges="-69329623#0 5312405#4 5312405#5 5312405#6 5312405#7 5312405#8 203756782#0 203756782#1 14204527#0 14204527#1 14204527#2 117884767#0 -117884767#0 -35202667#3 -35202667#1 -35202667#0 -33708057#7 -33708057#6 -33708057#5 -33708057#4 -33708057#3 -33708057#2 -33708057#1 -33708056#1 -33708056#0 204614031 204614032 -283487903"/>
    </vehicle>
    <vehicle id="bus9" type="bus" depart="679.27" departLane="best">
        <route edges="-173920476#0 -33682821 33682823#1 33682822#3 33682822#4 33682822#5 33708057#3 33708057#4 33708057#5 33708057#6 33708057#7 35202667#0 35202667#1 35202667#3 -14204527#2"/>
    </vehicle>
    <vehicle id="bus11" type="bus" depart="830.22" departLane="best">
        <route edges="138964139 5312405#5 5312405#6 5312405#7 5312405#8 203756782#0 203756782#1 14204527#0 14204527#1 14204527#2 117884767#0 -117884767#0 -35202667#3 -35202667#1 -35202667#0 -33708057#7 -33708057#6 -33708057#5 -33708057#4 -33708057#3 -33708057#2 5364409#0 5364409#1 74816879 74816878#1"/>
    </vehicle>
    <vehicle id="bus12" type="bus" depart="905.69" departLane="best">
        <route edges="-69329629#3 118614125 -69329629#0 -118631280#6 -118631280#5 -118631280#4 -118631280#3 -118631280#2 -118631280#1 -118631280#0 118631260 523111039#1 118628034#0 118628034#1 118628035 236324347 236324344 138017446 118611615 203756782#0 203756782#1 203756782#2 203756782#3 203756782#4 1217382#0"/>
    </vehicle>
    <vehicle id="bus13" type="bus" depart="981.17" departLane="best">
        <route edges="69323540#3 -5364447#1 -5364447#0 5364446#0 5364446#1 523111035 523111034 523111036 523111038 523111039#0 523111039#1 118628034#0 118628034#1 118628035 236324347 -117884767#1 -117884767#0 -35202667#3 -35202667#1 -35202667#0 414126489 138139938#2 138139938#3 138139938#4"/>
    </vehicle>
    <vehicle id="bus14" type="bus" depart="1056.64" departLane="best">
        <route edges="34954647 -5364447#0 5364446#0 5364446#1 523111035 523111034 523111036 523111038 523111039#0 523111039#1 118628034#0 118628034#1 118628035 236324347 236324344 138017446 118611615 203756782#0 203756782#1 203756782#2 203756782#3 203756782#4 1217382#0 -1217382#0"/>
    </vehicle>
    <vehicle id="bus15" type="bus" depart="1132.12" departLane="best">
        <route edges="-477791961#0 -368374365#0 -438203825 -138139938#3 -138139938#2 -138139938#0 35202667#0 35202667#1 35202667#3 117884767#0 117884767#1 236324344 236672713 236672712 138017447#0 138017447#1 51012854#0 -51012854#0"/>
    </vehicle>
    <vehicle id="bus16" type="bus" depart="1207.59" departLane="best">
        <route edges="33682821 -33682821 33682823#1 33682822#3 33682822#4 33682822#5 33708057#3 33708057#4 33708057#5 33708057#6 33708057#7 35202667#0 35202667#1 35202667#3 117884767#0 117884767#1 236324344 236672713 236672712 236672711 35389138#0 35389138#1 35389138#2 35389138#3 35389138#4 35389138#5 35389138#6 5364447#0 5364447#1 -69323540#3"/>
    </vehicle>
    <vehicle id="bus17" type="bus" depart="1283.07" departLane="best">
        <route edges="-69329628#2 69329628#2 5312405#6 5312405#7 5312405#8 203756782#0 203756782#1 14204527#0 14204527#1 14204527#2 117884767#0 -117884767#0 -35202667#3 5364484#0 5364484#1 33696907 33696912#0 33696912#1 -33696912#1"/>
    </vehicle>
    <vehicle id="bus18" type="bus" depart="1358.54" departLane="best">
        <route edges="-5364409#2 -5364409#1 -5364409#0 33708057#2 33708057#3 33708057#4 33708057#5 33708057#6 33708057#7 35202667#0 35202667#1 35202667#3 117884767#0 117884767#1 236324344 138017446 118611615 -5312405#8 -5312405#7 -5312405#6 -69329628#2 69329628#2"/>
    </vehicle>
    <vehicle id="bus19" type="bus" depart="1434.02" departLane="best">
        <route edges="-33696907 -5364484#1 -5364484#0 35202667#3 -14204527#2 -14204527#1 -118611606 -1217382#1 -1217382#0 -203756782#4 -69329603#1 -69329603#0 69329615#0 69329615#1 -69329615#1"/>
    </vehicle>
    <vehicle id="bus20" type="bus" depart="1509.49" departLane="best">
        <route edges="154411011 33708056#1 33708057#0 33708057#2 33708057#3 33708057#4 33708057#5 33708057#6 33708057#7 -374366365#9 -374366365#8 -374366365#7 -374366365#6 -374366365#5 -374366365#4 -374366365#3 -374366365#2 33696902#0"/>
    </vehicle>
    <vehicle id="bus21" type="bus" depart="1584.97" departLane="best">
        <route edges="69231138#0 69231138#1 -69329629#0 -118631280#6 -118631280#5 -118631280#4 -118631280#3 -118631280#2 -118631280#1 -118631280#0 118631260 523111039#1 118628034#0 118628034#1 118628035 236324347 236324344 138017446 118611615 203756782#0 203756782#1 203756782#2 203756782#3 203756782#4 203756782#5 203756782#6 203756782#8 203756782#9 203756781 477791960#1 477791960#2 477791960#3"/>
    </vehicle>
    <vehicle id="bus22" type="bus" depart="1660.44" departLane="best">
        <route edges="-477791961#1 -477791961#0 -368374365#0 -438203825 -138139938#3 -138139938#2 -138139938#0 35202667#0 35202667#1 35202667#3 117884767#0 117884767#1 236324344 236672713 236672712 236672711 35389138#0 35389138#1 118631280#0 118631280#1 118631280#2 -118631280#2"/>
    </vehicle>
    <vehicle id="bus23" type="bus" depart="1735.91" departLane="best">
        <route edges="-430265853 74816893 69600627#12 69600627#13 204614033 33708056#1 33708057#0 33708057#2 33708057#3 33708057#4 33708057#5 33708057#6 33708057#7 35202667#0 35202667#1 35202667#3 117884767#0 117884767#1 236324344 236672713 236672712 236672711 35389138#0 35389138#1 118631280#0 118631280#1 118631280#2 118631280#3 118631280#4 118631280#5 118631280#6 118631280#7 -118614125 69329629#3"/>
    </vehicle>
    <vehicle id="bus24" type="bus" depart="1811.39" departLane="best">
        <route edges="69329615#0 -69329615#0 69329603#0 69329603#1 203756782#4 1217382#0 1217382#1 118611606 14204527#1 14204527#2 117884767#0 -117884767#0 -35202667#3 -35202667#1 -35202667#0 -33708057#7 -33708057#6 -33708057#5 -33708057#4 -33708057#3 -33708057#2 5364409#0 5364409#1 -5364409#1"/>
    </vehicle>
    <vehicle id="bus25" type="bus" depart="1886.86" departLane="best">
        <route edges="33682824#0 -33682824#0 33682822#5 33708057#3 33708057#4 33708057#5 33708057#6 33708057#7 35202667#0 35202667#1 35202667#3 -14204527#2 -14204527#1 -118611606 -1217382#1 -1217382#0 -203756782#4 -69329603#1 -69329603#0 69329615#0 69329615#1 -69329623#1"/>
    </vehicle>
    <vehicle id="bus26" type="bus" depart="1962.34" departLane="best">
        <route edges="69329628#0 69329628#1 69329628#2 5312405#6 5312405#7 5312405#8 203756782#0 203756782#1 14204527#0 14204527#1 14204527#2 117884767#0 -117884767#0 -35202667#3 -35202667#1 -35202667#0 -374366365#9 -374366365#8 -374366365#7 -72449432#2 -72449422 72449434#1 -72449432#0"/>
    </vehicle>
    <vehicle id="bus27" type="bus" depart="2037.81" departLane="best">
        <route edges="-5364409#1 -5364409#0 33708057#2 33708057#3 33708057#4 33708057#5 33708057#6 33708057#7 -374366365#9 -374366365#8 -374366365#7 -374366365#6 -374366365#5 -374366365#4 -374366365#3 -374366365#2 -374366365#1"/>
    </vehicle>
    <vehicle id="bus28" type="bus" depart="2113.29" departLane="best">
        <route edges="17187928#0 17187928#1 17187928#2 17187928#5 -22380352 -204614031 204614033 33708056#1 33708057#0 33708057#2 33708057#3 33708057#4 33708057#5 33708057#6 33708057#7 -374366365#9"/>
    </vehicle>
    <vehicle id="bus29" type="bus" depart="2188.76" departLane="best">
        <route edges="75654228 138964140#1 138964140#2 -51012853 69329628#2 5312405#6 5312405#7 5312405#8 203756782#0 203756782#1 14204527#0 14204527#1 14204527#2 117884767#0 -117884767#0 -35202667#3 -35202667#1 -35202667#0 -374366365#9 -374366365#8 -374366365#7 -374366365#6 -374366365#5 -374366365#4 -374366365#3 -118611610#2 -118611610#1 -118611610#0 118611608#1"/>
    </vehicle>
    <vehicle id="bus30" type="bus" depart="2264.24" departLane="best">
        <route edges="-17187928#5 17187928#5 -22380352 -204614031 204614033 33708056#1 33708057#0 33708057#2 33708057#3 33708057#4 33708057#5 33708057#6 33708057#7 35202667#0 35202667#1 35202667#3 -14204527#2 -14204527#1 -118611606 -1217382#1"/>
    </vehicle>
    <vehicle id="bus31" type="bus" depart="2339.71" departLane="best">
        <route edges="-138290301#2 138290301#2 138290301#3 -477791960#0 -203756782#9 -203756782#8 -203756782#6 -203756782#5 -203756782#4 -69329603#1 -69329603#0 69329615#0 69329615#1 -69329623#1 -69329624#4 -69329624#3 -69329624#2 -69329616"/>
    </vehicle>
    <vehicle id="bus32" type="bus" depart="2415.18" departLane="best">
        <route edges="-118611606 118611606 14204527#1 14204527#2 117884767#0 -117884767#0 -35202667#3 -35202667#1 -35202667#0 -33708057#7 -33708057#6 -33708057#5 -33708057#4 33708057#4"/>
    </vehicle>
    <vehicle id="bus33" type="bus" depart="2490.66" departLane="best">
        <route edges="33696907 -33696907 -5364484#1 -5364484#0 35202667#3 117884767#0 117884767#1 236324344 236672713 236672712 236672711 35389138#0 35389138#1 118631280#0"/>
    </vehicle>
    <vehicle id="bus35" type="bus" depart="2641.61" departLane="best">
        <route edges="-203756782#9 -203756782#8 -203756782#6 -203756782#5 1217382#0 1217382#1 118611606 14204527#1 14204527#2 117884767#0 -117884767#0 -35202667#3 -35202667#1 -35202667#0 -33708057#7 -33708057#6 -33708057#5 -33708057#4 -33708057#3 -33708057#2 -33708057#1 -33708056#1 -33708056#0 -69600627#13 -69600627#12 -69600627#10 -69600627#9 -69600627#8 -69600627#7 -69600627#6 -69600627#5 -69600627#4 -69600627#3 -69600627#2"/>
    </vehicle>
    <vehicle id="bus36" type="bus" depart="2717.08" departLane="best">
        <route edges="69329615#0 -69329615#0 69329603#0 69329603#1 203756782#4 1217382#0 1217382#1 118611606 14204527#1 14204527#2 117884767#0 -117884767#0 -35202667#3 -35202667#1 -35202667#0 -374366365#9"/>
    </vehicle>
    <vehicle id="bus37" type="bus" depart="2792.56" departLane="best">
        <route edges="69329628#0 69329628#1 69329628#2 5312405#6 5312405#7 5312405#8 -118611615 118611609 236672712 236672711 35389138#0 35389138#1 118631260 523111039#1 65512426"/>
    </vehicle>
    <vehicle id="bus38" type="bus" depart="2868.03" departLane="best">
        <route edges="22634728#3 22634728#4 22634728#5 236324352 236324347 -117884767#1 -117884767#0 -35202667#3 -35202667#1 -35202667#0 -33708057#7 -33708057#6 -33708057#5 -33708057#4 -33708057#3 -33708057#2 -33708057#1 -33708056#1 -33708056#0 204614031 204614032 -283487903"/>
    </vehicle>
    <vehicle id="bus40" type="bus" depart="3018.98" departLane="best">
        <route edges="-118611610#2 118611610#2 374366365#3 374366365#4 374366365#5 374366365#6 374366365#7 374366365#8 374366365#9 35202667#0 35202667#1 35202667#3 117884767#0 117884767#1 236324344 138017446 118611615 -5312405#8 -5312405#7 -5312405#6 -69329628#2 51012853 69329627#0"/>
    </vehicle>
    <vehicle id="bus41" type="bus" depart="3094.46" departLane="best">
        <route edges="69329615#1 -69329615#1 -69329615#0 69329603#0 69329603#1 203756782#4 1217382#0 1217382#1 118611606 14204527#1 14204527#2 117884767#0 -117884767#0 -35202667#3 -35202667#1 -35202667#0 414126489 138139938#2 138139938#3 138139938#4 366788787 5364412#0 5364412#1"/>
    </vehicle>
    <vehicle id="bus42" type="bus" depart="3169.93" departLane="best">
        <route edges="-69323540#1 69323540#1 69323540#2 69323540#3 -5364447#1 -5364447#0 5364446#0 5364446#1 523111035 523111034 523111036 523111038 523111039#0 523111039#1 118628034#0 118628034#1 118628035 236324347 236324344 138017446 118611615 203756782#0 203756782#1 203756782#2 203756782#3 203756782#4 203756782#5 203756782#6 203756782#8 203756782#9 203756781 477791960#1 477791960#2 -138289827"/>
    </vehicle>
    <vehicle id="bus43" type="bus" depart="3245.40" departLane="best">
        <route edges="69329615#1 -69329615#1 -69329615#0 69329603#0 69329603#1 203756782#4 1217382#0 1217382#1 118611606 14204527#1 14204527#2 117884767#0 -117884767#0 -35202667#3 -35202667#1 -35202667#0 -33708057#7 -33708057#6 -33708057#5 -33708057#4 -33708057#3 -33708057#2 -33708057#1 -33708056#1 -33708056#0 -69600627#13 -69600627#12 69600627#12"/>
    </vehicle>
    <vehicle id="bus44" type="bus" depart="3320.88" departLane="best">
        <route edges="-138964139 69329603#0 69329603#1 203756782#4 1217382#0 1217382#1 118611606 14204527#1 14204527#2 117884767#0 -117884767#0 -35202667#3 -35202667#1 -35202667#0 -374366365#9 -374366365#8 374366365#8"/>
    </vehicle>
    <vehicle id="bus45" type="bus" depart="3396.35" departLane="best">
        <route edges="-5364409#1 -5364409#0 33708057#2 33708057#3 33708057#4 33708057#5 33708057#6 33708057#7 35202667#0 35202667#1 35202667#3 117884767#0 117884767#1 236324344 236672713 236672712 236672711 35389138#0 35389138#1 118631280#0 118631280#1 118631280#2 118631280#3 118631280#4 118631280#5 118631280#6 118631280#7 -69231138#1 69231138#1"/>
    </vehicle>
    <vehicle id="bus46" type="bus" depart="3471.83" departLane="best">
        <route edges="-751532 17187928#5 -22380352 -204614031 204614033 -33708056#0"/>
    </vehicle>
    <vehicle id="bus47" type="bus" depart="3547.30" departLane="best">
        <route edges="138964140#0 138964140#1 138964140#2 -51012853 69329628#2 5312405#6 5312405#7 5312405#8 203756782#0 203756782#1 14204527#0 14204527#1 14204527#2 117884767#0 -117884767#0 -35202667#3 -35202667#1 35202667#1"/>
    </vehicle>
</routes>
