<?xml version="1.0" encoding="UTF-8"?>

<!-- generated on Sat Mar  3 16:10:20 2018 by SUMO polyconvert Version 0.32.0
<?xml version="1.0" encoding="UTF-8"?>

<configuration xmlns:xsi="http://www.w3.org/2001/XMLSchema-instance" xsi:noNamespaceSchemaLocation="http://sumo.dlr.de/xsd/polyconvertConfiguration.xsd">

    <input>
        <net-file value="/home/kealan/sumo-svn/tools/2018-03-03-16-10-18/osm.net.xml"/>
        <osm-files value="osm_bbox.osm.xml"/>
        <osm.keep-full-type value="true"/>
        <type-file value="/home/kealan/sumo-svn/data/typemap/osmPolyconvert.typ.xml"/>
    </input>

    <output>
        <output-file value="/home/kealan/sumo-svn/tools/2018-03-03-16-10-18/osm.poly.xml"/>
    </output>

    <processing>
        <poi-layer-offset value="5"/>
    </processing>

    <report>
        <verbose value="true"/>
    </report>

</configuration>
-->

<additional xmlns:xsi="http://www.w3.org/2001/XMLSchema-instance" xsi:noNamespaceSchemaLocation="http://sumo.dlr.de/xsd/additional_file.xsd">
    <location netOffset="-535704.09,-5749389.56" convBoundary="-1858.76,-15.40,1396.03,857.74" origBoundary="-8.508145,51.894052,-8.460795,51.901759" projParameter="+proj=utm +zone=29 +ellps=WGS84 +datum=WGS84 +units=m +no_defs"/>

    <poly id="106973482" type="amenity.theatre" color="237,199,199" fill="1" layer="-1.00" shape="339.28,384.53 341.51,379.58 343.92,380.33 345.50,380.34 347.33,379.63 348.55,378.30 348.81,375.64 347.86,373.10 344.59,371.38 346.33,366.67 312.80,353.84 306.24,372.31 339.28,384.53"/>
    <poly id="106973482#1" type="building.yes" color="255,230,230" fill="1" layer="-1.00" shape="339.28,384.53 341.51,379.58 343.92,380.33 345.50,380.34 347.33,379.63 348.55,378.30 348.81,375.64 347.86,373.10 344.59,371.38 346.33,366.67 312.80,353.84 306.24,372.31 339.28,384.53"/>
    <poly id="106973483" type="building.yes" color="255,230,230" fill="1" layer="-1.00" shape="325.79,332.13 335.17,311.50 387.57,331.00 385.31,341.76 353.12,329.06 348.18,341.13 325.79,332.13"/>
    <poly id="107057555" type="building.yes" color="255,230,230" fill="1" layer="-1.00" shape="1111.31,555.20 1113.76,547.08 1115.64,547.59 1125.82,516.30 1124.24,515.79 1127.29,506.88 1102.63,489.83 1099.76,488.52 1097.57,488.50 1094.28,488.96 1092.47,490.74 1083.57,510.73 1085.36,511.43 1083.64,515.49 1081.35,515.47 1070.20,542.10 1077.97,544.58 1080.03,545.23 1111.31,555.20"/>
    <poly id="107285293" type="building.yes" color="255,230,230" fill="1" layer="-1.00" shape="1179.27,531.61 1179.65,530.37 1181.15,529.51 1183.52,529.91 1184.50,531.40 1184.48,533.38 1183.23,534.62 1181.49,534.73 1179.88,534.47 1179.60,537.44 1182.71,538.21 1183.04,560.30 1166.36,558.88 1163.03,558.42 1164.18,554.70 1142.20,548.59 1140.02,557.38 1136.17,556.85 1123.14,556.91 1124.41,552.89 1122.24,552.26 1130.23,522.84 1132.41,523.32 1134.95,514.66 1179.18,526.77 1177.75,531.57 1179.27,531.61"/>
    <poly id="120291202" type="amenity.public_building" color="237,199,199" fill="1" layer="-1.00" shape="1098.35,314.26 1090.13,310.96 1091.21,308.28 1073.49,301.16 1072.15,304.47 1065.54,301.82 1069.34,300.94 1065.69,299.48 1065.19,300.71 1054.61,296.48 1063.48,268.69 1107.22,286.24 1104.52,298.75 1123.58,306.40 1129.39,292.03 1143.68,297.76 1132.08,326.52 1118.01,320.87 1116.98,323.44 1100.73,316.92 1098.35,314.26"/>
    <poly id="120291202#1" type="building.yes" color="255,230,230" fill="1" layer="-1.00" shape="1098.35,314.26 1090.13,310.96 1091.21,308.28 1073.49,301.16 1072.15,304.47 1065.54,301.82 1069.34,300.94 1065.69,299.48 1065.19,300.71 1054.61,296.48 1063.48,268.69 1107.22,286.24 1104.52,298.75 1123.58,306.40 1129.39,292.03 1143.68,297.76 1132.08,326.52 1118.01,320.87 1116.98,323.44 1100.73,316.92 1098.35,314.26"/>
    <poly id="120291203" type="amenity.parking" color="184,184,179" fill="1" layer="-1.00" shape="1145.61,295.23 1129.43,288.69 1128.78,284.12 1113.86,283.97 1110.62,292.16 1107.22,286.24 1063.48,268.69 1058.27,271.32 1064.43,255.86 1116.60,277.25 1115.00,279.49 1121.20,279.85 1123.01,275.40 1119.03,273.79 1136.50,230.78 1166.82,243.02 1151.38,281.04 1149.42,285.85 1145.61,295.23"/>
    <poly id="120291203#1" type="building.parking" color="255,230,230" fill="1" layer="-1.00" shape="1145.61,295.23 1129.43,288.69 1128.78,284.12 1113.86,283.97 1110.62,292.16 1107.22,286.24 1063.48,268.69 1058.27,271.32 1064.43,255.86 1116.60,277.25 1115.00,279.49 1121.20,279.85 1123.01,275.40 1119.03,273.79 1136.50,230.78 1166.82,243.02 1151.38,281.04 1149.42,285.85 1145.61,295.23"/>
    <poly id="147753804" type="building.shop" color="255,230,230" fill="1" layer="-1.00" shape="815.15,537.04 831.59,534.08 837.31,476.54 823.03,471.75 815.15,537.04"/>
    <poly id="153882366" type="building.yes" color="255,230,230" fill="1" layer="-1.00" shape="385.66,509.67 383.90,507.17 381.17,505.61 379.65,504.81 375.61,504.78 372.68,506.77 371.48,510.33 369.00,518.54 376.16,520.68 381.29,522.21 385.66,509.67"/>
    <poly id="153882367" type="building.yes" color="255,230,230" fill="1" layer="-1.00" shape="695.66,516.09 690.03,518.85 663.80,504.89 677.33,465.13 688.29,468.86 687.19,472.28 695.11,474.31 693.95,477.35 696.45,478.36 694.04,485.50 704.51,490.02 695.66,516.09"/>
    <poly id="153882368" type="building.yes" color="255,230,230" fill="1" layer="-1.00" shape="531.07,509.68 541.93,490.20 536.99,487.25 537.70,486.00 532.05,482.90 531.10,484.38 530.24,482.65 528.36,481.54 526.87,480.89 525.21,480.72 514.83,500.14 525.43,505.16 524.39,506.73 531.07,509.68"/>
    <poly id="153882370" type="building.yes" color="255,230,230" fill="1" layer="-1.00" shape="627.32,549.03 639.30,524.89 637.64,523.21 635.54,522.20 633.75,522.41 631.74,523.17 628.96,521.82 629.53,520.37 628.10,518.37 626.65,517.36 624.31,517.68 623.08,518.00 615.51,533.55 611.43,541.92 627.32,549.03"/>
    <poly id="153882371" type="building.yes" color="255,230,230" fill="1" layer="-1.00" shape="405.51,443.08 391.04,488.50 391.38,490.87 393.63,491.95 395.29,492.20 437.36,474.96 434.11,464.97 446.38,460.80 449.70,461.54 451.77,455.39 446.55,454.04 445.59,455.81 428.64,449.41 427.44,451.07 405.51,443.08"/>
    <poly id="153882372" type="building.yes" color="255,230,230" fill="1" layer="-1.00" shape="666.48,540.57 646.81,529.95 640.93,541.81 660.77,551.84 666.48,540.57"/>
    <poly id="153882373" type="building.yes" color="255,230,230" fill="1" layer="-1.00" shape="590.09,500.49 603.49,507.55 599.57,515.65 585.83,508.30 590.09,500.49"/>
    <poly id="153882374" type="building.yes" color="255,230,230" fill="1" layer="-1.00" shape="453.65,490.84 446.86,493.76 451.41,505.64 458.46,502.72 453.65,490.84"/>
    <poly id="153882375" type="building.yes" color="255,230,230" fill="1" layer="-1.00" shape="507.68,474.36 489.96,480.11 492.26,489.33 504.31,486.99 507.68,474.36"/>
    <poly id="153882376" type="building.yes" color="255,230,230" fill="1" layer="-1.00" shape="507.68,474.36 522.19,478.40 516.22,491.35 504.31,486.99 507.68,474.36"/>
    <poly id="153882377" type="building.yes" color="255,230,230" fill="1" layer="-1.00" shape="478.36,483.09 472.59,484.69 475.86,494.20 481.88,493.85 478.36,483.09"/>
    <poly id="153882378" type="building.yes" color="255,230,230" fill="1" layer="-1.00" shape="567.50,492.79 555.30,515.03 538.42,507.79 550.11,485.78 567.50,492.79"/>
    <poly id="153882379" type="building.yes" color="255,230,230" fill="1" layer="-1.00" shape="710.06,684.75 700.14,642.84 652.50,649.49 664.71,689.90 710.06,684.75"/>
    <poly id="153882380" type="building.yes" color="255,230,230" fill="1" layer="-1.00" shape="610.66,472.42 565.30,457.98 573.97,430.81 586.39,392.68 632.40,407.57 610.66,472.42"/>
    <poly id="153882381" type="building.yes" color="255,230,230" fill="1" layer="-1.00" shape="682.23,583.27 687.08,597.22 672.11,599.21 667.41,585.93 672.05,584.37 682.23,583.27"/>
    <poly id="153882382" type="building.yes" color="255,230,230" fill="1" layer="-1.00" shape="693.73,618.31 696.72,637.48 683.02,638.56 679.87,620.10 683.05,619.57 693.73,618.31"/>
    <poly id="153882383" type="building.yes" color="255,230,230" fill="1" layer="-1.00" shape="397.66,509.52 385.66,509.67 381.29,522.21 392.79,525.37 395.22,518.64 397.66,509.52"/>
    <poly id="153882384" type="building.yes" color="255,230,230" fill="1" layer="-1.00" shape="578.79,494.59 569.84,512.05 580.75,517.63 585.83,508.30 590.09,500.49 578.79,494.59"/>
    <poly id="153882385" type="building.yes" color="255,230,230" fill="1" layer="-1.00" shape="446.86,493.76 433.75,498.99 440.39,517.06 453.38,512.06 451.41,505.64 446.86,493.76"/>
    <poly id="153882386" type="building.yes" color="255,230,230" fill="1" layer="-1.00" shape="466.28,486.55 453.65,490.84 458.46,502.72 459.14,504.39 471.29,499.85 466.28,486.55"/>
    <poly id="153882387" type="building.yes" color="255,230,230" fill="1" layer="-1.00" shape="356.34,520.96 352.22,532.79 359.80,535.33 362.96,525.51 363.81,523.03 356.34,520.96"/>
    <poly id="153882388" type="building.yes" color="255,230,230" fill="1" layer="-1.00" shape="677.96,569.58 682.23,583.27 672.05,584.37 668.98,573.94 671.63,573.05 670.81,570.28 677.96,569.58"/>
    <poly id="153882389" type="building.yes" color="255,230,230" fill="1" layer="-1.00" shape="472.59,484.69 466.28,486.55 471.29,499.85 473.92,498.82 472.99,495.01 475.86,494.20 472.59,484.69"/>
    <poly id="153882390" type="building.yes" color="255,230,230" fill="1" layer="-1.00" shape="428.74,500.62 418.77,504.19 422.92,514.53 423.20,515.23 424.67,514.71 427.03,521.03 424.05,522.14 422.53,527.05 420.44,526.63 419.94,528.22 410.77,548.87 409.06,548.38 406.08,555.30 419.39,561.59 422.50,554.63 423.44,555.13 427.33,547.42 430.81,539.84 432.23,532.88 434.90,518.51 432.47,511.91 429.71,503.54 428.74,500.62"/>
    <poly id="153882391" type="building.yes" color="255,230,230" fill="1" layer="-1.00" shape="687.08,597.22 690.79,606.63 693.73,618.31 683.05,619.57 680.53,608.57 675.98,609.13 672.11,599.21 687.08,597.22"/>
    <poly id="153882392" type="building.yes" color="255,230,230" fill="1" layer="-1.00" shape="406.31,508.63 397.66,509.52 395.22,518.64 400.20,520.21 406.60,522.74 407.04,519.79 404.83,519.12 405.42,513.57 407.60,513.70 407.68,511.89 406.31,508.63"/>
    <poly id="153882393" type="building.yes" color="255,230,230" fill="1" layer="-1.00" shape="437.36,474.96 457.54,466.75 457.06,464.82 455.72,465.17 453.23,458.61 449.70,461.54 446.38,460.80 434.11,464.97 437.36,474.96"/>
    <poly id="153882394" type="building.yes" color="255,230,230" fill="1" layer="-1.00" shape="667.62,546.20 670.14,546.31 677.96,569.58 670.81,570.28 671.63,573.05 668.98,573.94 666.49,574.78 655.44,568.99 667.62,546.20"/>
    <poly id="153882395" type="building.yes" color="255,230,230" fill="1" layer="-1.00" shape="623.08,518.00 622.92,516.41 620.92,515.14 619.32,514.87 617.64,514.95 607.17,509.76 599.50,525.21 615.51,533.55 623.08,518.00"/>
    <poly id="153882396" type="building.yes" color="255,230,230" fill="1" layer="-1.00" shape="486.47,459.56 509.59,452.89 512.67,441.56 503.89,438.79 503.00,441.66 496.17,439.26 495.59,440.46 491.86,439.05 486.47,459.56"/>
    <poly id="153882397" type="building.yes" color="255,230,230" fill="1" layer="-1.00" shape="643.42,468.78 635.25,489.91 618.48,479.34 617.64,477.92 617.86,475.78 623.15,459.89 643.42,468.78"/>
    <poly id="153882398" type="building.yes" color="255,230,230" fill="1" layer="-1.00" shape="515.70,449.08 517.36,452.10 529.62,452.69 532.47,453.21 534.99,453.07 536.51,452.08 558.48,458.94 580.47,390.14 540.14,376.57 515.70,449.08"/>
    <poly id="153882399" type="amenity.pub" color="237,199,199" fill="1" layer="-1.00" shape="358.33,514.73 356.34,520.96 363.81,523.03 362.96,525.51 368.53,527.69 369.62,525.56 373.65,526.89 376.16,520.68 369.00,518.54 358.33,514.73"/>
    <poly id="153882399#1" type="building.yes" color="255,230,230" fill="1" layer="-1.00" shape="358.33,514.73 356.34,520.96 363.81,523.03 362.96,525.51 368.53,527.69 369.62,525.56 373.65,526.89 376.16,520.68 369.00,518.54 358.33,514.73"/>
    <poly id="153883565" type="building.yes" color="255,230,230" fill="1" layer="-1.00" shape="365.01,470.10 363.67,474.58 350.06,511.78 346.48,516.67 343.38,520.10 340.30,520.71 337.23,520.69 317.95,511.61 270.07,489.86 266.51,487.72 264.28,485.59 263.11,482.56 263.00,478.86 271.29,439.01 365.01,470.10"/>
    <poly id="153883567" type="building.yes" color="255,230,230" fill="1" layer="-1.00" shape="351.01,460.27 366.88,465.19 377.60,435.28 360.96,431.72 318.82,423.32 318.01,427.60 357.91,439.76 351.01,460.27"/>
    <poly id="170239183" type="amenity.restaurant" color="237,199,199" fill="1" layer="-1.00" shape="539.13,233.44 529.37,230.05 536.34,210.21 547.62,210.13 539.13,233.44"/>
    <poly id="170239183#1" type="building.yes" color="255,230,230" fill="1" layer="-1.00" shape="539.13,233.44 529.37,230.05 536.34,210.21 547.62,210.13 539.13,233.44"/>
    <poly id="170240565" type="amenity.cafe" color="237,199,199" fill="1" layer="-1.00" shape="1113.08,488.95 1112.13,488.30 1110.93,490.18 1106.41,487.30 1109.70,482.14 1114.23,485.02 1113.24,486.56 1114.20,487.29 1114.86,486.26 1119.95,489.70 1117.34,493.43 1112.41,489.99 1113.08,488.95"/>
    <poly id="170240565#1" type="building.retail" color="255,230,230" fill="1" layer="-1.00" shape="1113.08,488.95 1112.13,488.30 1110.93,490.18 1106.41,487.30 1109.70,482.14 1114.23,485.02 1113.24,486.56 1114.20,487.29 1114.86,486.26 1119.95,489.70 1117.34,493.43 1112.41,489.99 1113.08,488.95"/>
    <poly id="170244688" type="amenity.post_office" color="237,199,199" fill="1" layer="-1.00" shape="727.42,406.39 735.71,408.84 734.76,412.52 736.05,412.89 734.73,416.20 725.34,413.00 727.42,406.39"/>
    <poly id="170244688#1" type="building.yes" color="255,230,230" fill="1" layer="-1.00" shape="727.42,406.39 735.71,408.84 734.76,412.52 736.05,412.89 734.73,416.20 725.34,413.00 727.42,406.39"/>
    <poly id="170244689" type="building.commercial" color="255,230,230" fill="1" layer="-1.00" shape="740.58,603.63 736.80,604.23 739.34,610.14 735.98,610.73 737.24,619.15 743.78,618.38 744.55,623.66 757.52,621.81 757.70,622.63 792.40,617.18 791.27,610.40 805.30,608.39 807.12,619.24 808.72,629.79 809.53,634.72 823.95,632.49 822.78,625.74 826.41,625.29 822.63,605.47 820.17,605.34 819.46,599.95 841.07,595.98 840.70,589.90 833.96,590.78 832.46,584.46 826.55,585.35 827.26,590.09 823.46,590.61 780.33,597.25 770.75,593.52 745.05,598.34 745.52,602.67 740.58,603.63"/>
    <poly id="170244691" type="building.mall" color="255,230,230" fill="1" layer="-1.00" shape="468.38,599.27 468.55,601.84 475.37,602.08 474.66,620.31 398.01,618.38 396.82,618.82 400.29,597.67 418.55,600.01 418.34,602.40 443.43,604.79 443.87,598.35 461.23,599.04 465.24,599.19 468.38,599.27"/>
    <poly id="170244691#1" type="shop.mall" color="237,199,255" fill="1" layer="-1.00" shape="468.38,599.27 468.55,601.84 475.37,602.08 474.66,620.31 398.01,618.38 396.82,618.82 400.29,597.67 418.55,600.01 418.34,602.40 443.43,604.79 443.87,598.35 461.23,599.04 465.24,599.19 468.38,599.27"/>
    <poly id="170244692" type="amenity.cafe" color="237,199,199" fill="1" layer="-1.00" shape="405.15,371.07 400.94,369.89 403.08,362.24 407.29,363.41 405.15,371.07"/>
    <poly id="170244692#1" type="building.retail" color="255,230,230" fill="1" layer="-1.00" shape="405.15,371.07 400.94,369.89 403.08,362.24 407.29,363.41 405.15,371.07"/>
    <poly id="170244693" type="amenity.cafe" color="237,199,199" fill="1" layer="-1.00" shape="740.58,603.63 739.85,600.30 721.48,603.37 724.67,612.50 735.98,610.73 739.34,610.14 736.80,604.23 740.58,603.63"/>
    <poly id="170244693#1" type="building.yes" color="255,230,230" fill="1" layer="-1.00" shape="740.58,603.63 739.85,600.30 721.48,603.37 724.67,612.50 735.98,610.73 739.34,610.14 736.80,604.23 740.58,603.63"/>
    <poly id="170244695" type="amenity.pharmacy" color="237,199,199" fill="1" layer="-1.00" shape="735.98,610.73 724.67,612.50 727.64,620.88 737.24,619.15 735.98,610.73"/>
    <poly id="170244695#1" type="building.yes" color="255,230,230" fill="1" layer="-1.00" shape="735.98,610.73 724.67,612.50 727.64,620.88 737.24,619.15 735.98,610.73"/>
    <poly id="170244696" type="amenity.post_office" color="237,199,199" fill="1" layer="-1.00" shape="727.20,386.87 758.58,398.04 748.68,427.34 746.82,429.54 745.15,430.27 743.11,430.81 741.08,430.97 715.86,422.50 727.20,386.87"/>
    <poly id="170244696#1" type="building.yes" color="255,230,230" fill="1" layer="-1.00" shape="727.20,386.87 758.58,398.04 748.68,427.34 746.82,429.54 745.15,430.27 743.11,430.81 741.08,430.97 715.86,422.50 727.20,386.87"/>
    <poly id="174387179" type="amenity.bank" color="237,199,199" fill="1" layer="-1.00" shape="613.61,254.50 617.00,245.23 600.10,238.67 603.78,229.33 613.50,232.99 616.89,224.38 607.56,221.14 608.73,220.92 608.43,219.96 604.82,210.35 600.07,211.91 588.40,242.90 593.18,244.53 592.23,246.91 613.61,254.50"/>
    <poly id="174387179#1" type="building.yes" color="255,230,230" fill="1" layer="-1.00" shape="613.61,254.50 617.00,245.23 600.10,238.67 603.78,229.33 613.50,232.99 616.89,224.38 607.56,221.14 608.73,220.92 608.43,219.96 604.82,210.35 600.07,211.91 588.40,242.90 593.18,244.53 592.23,246.91 613.61,254.50"/>
    <poly id="174387180" type="amenity.parking" color="184,184,179" fill="1" layer="-1.00" shape="890.59,371.38 892.76,366.74 841.25,346.85 839.35,351.35 890.59,371.38"/>
    <poly id="174387181" type="amenity.parking" color="184,184,179" fill="1" layer="-1.00" shape="824.33,348.19 826.64,343.02 712.47,298.90 710.70,303.54 824.33,348.19"/>
    <poly id="174387182" type="amenity.parking" color="184,184,179" fill="1" layer="-1.00" shape="606.61,265.34 609.05,259.11 698.53,292.96 696.10,298.38 606.61,265.34"/>
    <poly id="174496075" type="amenity.theatre" color="237,199,199" fill="1" layer="-1.00" shape="533.82,662.14 517.02,663.31 518.16,677.98 534.27,676.13 533.82,662.14"/>
    <poly id="174496075#1" type="building.yes" color="255,230,230" fill="1" layer="-1.00" shape="533.82,662.14 517.02,663.31 518.16,677.98 534.27,676.13 533.82,662.14"/>
    <poly id="174496080" type="building.yes" color="255,230,230" fill="1" layer="-1.00" shape="892.95,813.48 885.92,766.13 900.16,763.94 898.54,756.10 931.79,751.37 938.98,806.57 892.95,813.48"/>
    <poly id="174496080#1" type="tourism.hotel" color="207,245,201" fill="1" layer="-2.00" shape="892.95,813.48 885.92,766.13 900.16,763.94 898.54,756.10 931.79,751.37 938.98,806.57 892.95,813.48"/>
    <poly id="174496082" type="building.yes" color="255,230,230" fill="1" layer="-1.00" shape="516.98,616.26 521.30,607.01 551.11,620.21 550.65,621.11 558.44,624.77 554.33,633.86 555.79,634.50 556.51,636.53 555.76,637.82 554.30,638.81 555.18,645.74 553.19,646.00 554.95,659.79 556.90,659.55 557.94,667.74 538.68,670.17 537.25,658.93 534.89,659.22 516.90,661.46 516.46,651.57 515.87,641.04 514.36,619.27 516.04,616.79 516.98,616.26"/>
    <poly id="174496082#1" type="shop.art" color="237,199,255" fill="1" layer="-1.00" shape="516.98,616.26 521.30,607.01 551.11,620.21 550.65,621.11 558.44,624.77 554.33,633.86 555.79,634.50 556.51,636.53 555.76,637.82 554.30,638.81 555.18,645.74 553.19,646.00 554.95,659.79 556.90,659.55 557.94,667.74 538.68,670.17 537.25,658.93 534.89,659.22 516.90,661.46 516.46,651.57 515.87,641.04 514.36,619.27 516.04,616.79 516.98,616.26"/>
    <poly id="174496082#2" type="tourism.gallery" color="207,245,201" fill="1" layer="-2.00" shape="516.98,616.26 521.30,607.01 551.11,620.21 550.65,621.11 558.44,624.77 554.33,633.86 555.79,634.50 556.51,636.53 555.76,637.82 554.30,638.81 555.18,645.74 553.19,646.00 554.95,659.79 556.90,659.55 557.94,667.74 538.68,670.17 537.25,658.93 534.89,659.22 516.90,661.46 516.46,651.57 515.87,641.04 514.36,619.27 516.04,616.79 516.98,616.26"/>
    <poly id="174582732" type="building.yes" color="255,230,230" fill="1" layer="-1.00" shape="969.79,480.82 973.05,471.16 982.31,474.44 984.22,475.78 980.61,484.99 969.79,480.82"/>
    <poly id="174582733" type="building.yes" color="255,230,230" fill="1" layer="-1.00" shape="960.53,506.01 969.79,480.82 980.61,484.99 974.88,502.03 981.43,504.29 978.06,512.19 960.53,506.01"/>
    <poly id="174582734" type="amenity.bank" color="237,199,199" fill="1" layer="-1.00" shape="985.88,432.42 990.66,434.13 990.86,433.19 1001.17,437.26 1000.86,438.05 1004.12,439.26 1000.82,447.82 996.96,446.44 991.03,463.10 984.37,460.75 983.50,463.20 986.00,464.09 982.31,474.44 973.05,471.16 975.74,463.59 974.82,463.44 977.69,455.83 978.44,456.03 983.92,440.61 983.03,440.26 985.88,432.42"/>
    <poly id="174582734#1" type="building.yes" color="255,230,230" fill="1" layer="-1.00" shape="985.88,432.42 990.66,434.13 990.86,433.19 1001.17,437.26 1000.86,438.05 1004.12,439.26 1000.82,447.82 996.96,446.44 991.03,463.10 984.37,460.75 983.50,463.20 986.00,464.09 982.31,474.44 973.05,471.16 975.74,463.59 974.82,463.44 977.69,455.83 978.44,456.03 983.92,440.61 983.03,440.26 985.88,432.42"/>
    <poly id="174582735" type="building.commercial" color="255,230,230" fill="1" layer="-1.00" shape="1033.50,490.43 1047.46,456.80 1062.55,463.03 1056.54,477.51 1053.70,476.33 1047.70,490.78 1053.14,493.02 1051.19,497.74 1033.50,490.43"/>
    <poly id="174582737" type="building.yes" color="255,230,230" fill="1" layer="-1.00" shape="1011.16,523.32 1002.05,520.39 992.95,517.44 997.98,505.05 1003.08,507.04 1015.67,511.93 1011.16,523.32"/>
    <poly id="174582738" type="building.yes" color="255,230,230" fill="1" layer="-1.00" shape="1021.57,448.56 1039.57,456.00 1025.06,490.94 1012.09,485.57 1007.05,483.50 1021.57,448.56"/>
    <poly id="174582740" type="building.office" color="255,230,230" fill="1" layer="-1.00" shape="978.06,512.19 983.91,514.25 992.95,517.44 997.98,505.05 1009.15,477.51 1007.25,476.91 1018.03,446.75 1014.35,445.43 1015.44,442.55 1004.80,438.56 981.43,504.29 978.06,512.19"/>
    <poly id="174582741" type="building.yes" color="255,230,230" fill="1" layer="-1.00" shape="1025.06,490.94 1015.67,511.93 1003.08,507.04 1012.09,485.57 1025.06,490.94"/>
    <poly id="174582742" type="building.yes" color="255,230,230" fill="1" layer="-1.00" shape="1076.28,475.94 1078.71,476.84 1080.60,471.69 1076.19,468.53 1074.51,471.10 1065.33,464.77 1062.94,464.20 1057.07,479.30 1055.91,479.18 1051.30,490.44 1054.79,492.12 1036.81,531.88 1049.56,536.29 1050.90,536.22 1052.73,535.20 1067.99,499.07 1071.38,494.83 1070.28,493.53 1073.23,489.36 1072.32,488.07 1075.67,484.22 1074.01,482.38 1076.05,476.60 1076.28,475.94"/>
    <poly id="174685565" type="building.yes" color="255,230,230" fill="1" layer="-1.00" shape="968.72,581.30 964.94,563.89 997.61,557.38 1001.14,575.00 968.72,581.30"/>
    <poly id="174685566" type="building.yes" color="255,230,230" fill="1" layer="-1.00" shape="974.69,625.85 975.50,625.60 981.04,624.60 987.20,623.49 997.76,621.57 1008.26,619.68 1014.33,618.58 1020.42,617.48 1019.96,614.87 1018.93,609.05 1018.16,605.75 999.47,609.39 999.15,607.71 998.85,606.23 975.35,610.81 976.35,615.93 973.28,616.53 973.75,619.64 974.30,623.22 974.69,625.85"/>
    <poly id="174685569" type="building.apartments" color="255,230,230" fill="1" layer="-1.00" shape="1097.74,620.78 1096.66,615.29 1107.00,613.43 1105.14,605.62 1095.09,607.31 1093.30,598.26 1090.37,581.87 1097.12,580.28 1096.05,574.93 1091.99,573.99 1091.12,567.90 1092.06,564.59 1094.58,563.86 1097.26,564.64 1107.47,567.63 1117.16,615.22 1115.84,618.16 1097.74,620.78"/>
    <poly id="174685571" type="building.commercial" color="255,230,230" fill="1" layer="-1.00" shape="1087.16,564.50 1090.37,581.87 1093.30,598.26 1079.32,600.94 1083.38,624.77 1067.06,627.45 1063.78,609.53 1059.56,585.70 1074.10,583.39 1071.02,567.01 1072.51,566.93 1087.16,564.50"/>
    <poly id="174685578" type="building.roof" color="255,230,230" fill="1" layer="-1.00" shape="1025.97,607.53 1028.20,605.89 1029.13,604.05 1026.99,593.55 1025.53,591.88 1023.88,590.76 1022.22,590.39 977.31,598.52 972.96,607.88 973.68,611.16 975.35,610.81 998.85,606.23 999.15,607.71 999.47,609.39 1018.16,605.75 1018.93,609.05 1022.07,608.49 1025.97,607.53"/>
    <poly id="174685580" type="building.yes" color="255,230,230" fill="1" layer="-1.00" shape="1052.79,583.64 1058.95,582.79 1059.56,585.70 1063.78,609.53 1056.14,610.92 1050.00,612.16 1048.58,604.40 1048.25,599.99 1049.40,593.55 1050.71,590.25 1052.79,583.64"/>
    <poly id="174685582" type="building.retail" color="255,230,230" fill="1" layer="-1.00" shape="1057.47,625.46 1052.71,620.27 1051.44,617.68 1050.00,612.16 1056.14,610.92 1058.97,626.38 1057.47,625.46"/>
    <poly id="174685584" type="building.roof" color="255,230,230" fill="1" layer="-1.00" shape="1029.12,615.95 1028.36,611.66 1022.81,612.65 1022.07,608.49 1018.93,609.05 1019.96,614.87 1020.42,617.48 1029.12,615.95"/>
    <poly id="174685586" type="building.industrial" color="255,230,230" fill="1" layer="-1.00" shape="1059.42,628.84 1067.06,627.45 1063.78,609.53 1056.14,610.92 1058.97,626.38 1059.42,628.84"/>
    <poly id="174685589" type="building.roof" color="255,230,230" fill="1" layer="-1.00" shape="978.51,642.11 1036.31,631.60 1032.76,615.20 1029.12,615.95 1020.42,617.48 1014.33,618.58 1008.26,619.68 997.76,621.57 987.20,623.49 981.04,624.60 975.50,625.60 978.51,642.11"/>
    <poly id="174685597" type="building.yes" color="255,230,230" fill="1" layer="-1.00" shape="1052.79,583.64 1062.55,562.17 1072.35,565.75 1071.02,567.01 1074.10,583.39 1059.56,585.70 1058.95,582.79 1052.79,583.64"/>
    <poly id="174685600" type="building.yes" color="255,230,230" fill="1" layer="-1.00" shape="1062.55,562.17 1065.56,553.91 1070.65,555.58 1072.35,565.75 1062.55,562.17"/>
    <poly id="197648906" type="tourism.attraction" color="207,245,201" fill="1" layer="-2.00" shape="514.40,514.00 507.00,510.45 513.01,501.11 521.10,503.94 514.40,514.00"/>
    <poly id="22329196" type="leisure.park" color="207,245,201" fill="1" layer="-2.00" shape="391.82,378.91 295.42,345.45 292.30,342.13 290.93,338.11 290.80,332.86 301.34,304.20 312.44,308.57 316.15,303.56 321.27,305.65 322.97,309.48 327.22,311.15 330.82,309.16 335.09,310.73 324.49,333.39 348.18,341.67 350.65,337.10 364.26,342.35 366.76,335.09 384.92,342.33 388.11,330.26 401.60,335.23 391.82,378.91"/>
    <poly id="239234567" type="leisure.park" color="207,245,201" fill="1" layer="-2.00" shape="486.32,221.47 524.70,235.10 534.48,210.68 502.18,210.81 501.41,215.97 486.99,217.35 486.32,221.47"/>
    <poly id="239234733" type="amenity.place_of_worship" color="237,199,199" fill="1" layer="-1.00" shape="491.17,405.51 504.92,409.40 507.44,400.15 510.49,388.90 496.67,385.30 491.17,405.51"/>
    <poly id="239234733#1" type="building.church" color="255,230,230" fill="1" layer="-1.00" shape="491.17,405.51 504.92,409.40 507.44,400.15 510.49,388.90 496.67,385.30 491.17,405.51"/>
    <poly id="258915284" type="amenity.pub" color="237,199,199" fill="1" layer="-1.00" shape="387.22,404.85 385.14,411.19 372.87,407.62 374.29,404.28 368.71,402.57 369.57,400.76 356.60,395.64 355.61,396.61 344.18,391.51 347.02,384.42 348.60,379.96 355.58,381.41 362.28,383.13 360.56,388.98 361.81,390.80 371.58,393.94 373.10,395.48 381.19,397.91 388.73,399.90 387.22,404.85"/>
    <poly id="258915284#1" type="building.yes" color="255,230,230" fill="1" layer="-1.00" shape="387.22,404.85 385.14,411.19 372.87,407.62 374.29,404.28 368.71,402.57 369.57,400.76 356.60,395.64 355.61,396.61 344.18,391.51 347.02,384.42 348.60,379.96 355.58,381.41 362.28,383.13 360.56,388.98 361.81,390.80 371.58,393.94 373.10,395.48 381.19,397.91 388.73,399.90 387.22,404.85"/>
    <poly id="258915467" type="amenity.pub" color="237,199,199" fill="1" layer="-1.00" shape="236.30,464.47 237.88,454.37 255.96,457.17 254.38,467.28 236.30,464.47"/>
    <poly id="258915467#1" type="building.yes" color="255,230,230" fill="1" layer="-1.00" shape="236.30,464.47 237.88,454.37 255.96,457.17 254.38,467.28 236.30,464.47"/>
    <poly id="286265954" type="building.yes" color="255,230,230" fill="1" layer="-1.00" shape="382.81,626.20 386.69,600.09 364.18,594.04 344.32,589.48 352.82,564.50 372.33,570.58 376.04,548.41 338.17,531.53 309.70,630.20 331.91,637.79 338.82,611.64 382.81,626.20"/>
    <poly id="286265954#1" type="shop.mall" color="237,199,255" fill="1" layer="-1.00" shape="382.81,626.20 386.69,600.09 364.18,594.04 344.32,589.48 352.82,564.50 372.33,570.58 376.04,548.41 338.17,531.53 309.70,630.20 331.91,637.79 338.82,611.64 382.81,626.20"/>
    <poly id="300931873" type="building.roof" color="255,230,230" fill="1" layer="-1.00" shape="931.98,586.13 925.59,587.20 923.77,576.30 930.16,575.23 931.98,586.13"/>
    <poly id="304965648" type="historic.citywalls" color="128,255,128" fill="1" layer="-1.00" shape="384.03,369.08 379.01,365.94 383.17,351.42 387.96,353.30 384.03,369.08"/>
    <poly id="31349966" type="waterway.river" color="181,209,209" fill="0" layer="-4.00" shape="576.36,773.42 577.57,739.30"/>