<?xml version="1.0" encoding="UTF-8"?>

<!-- generated on Sat 03 Mar 2018 09:43:39 PM GMT by Netedit Version 0.32.0
<?xml version="1.0" encoding="UTF-8"?>

<configuration xmlns:xsi="http://www.w3.org/2001/XMLSchema-instance" xsi:noNamespaceSchemaLocation="http://sumo.dlr.de/xsd/netconvertConfiguration.xsd">

    <input>
        <sumo-net-file value="osm.net.xml"/>
    </input>

    <output>
        <output-file value="osm.net.xml"/>
        <output.street-names value="true"/>
    </output>

    <processing>
        <no-turnarounds value="true"/>
        <offset.disable-normalization value="true"/>
        <lefthand value="false"/>
        <junctions.corner-detail value="5"/>
        <rectangular-lane-cut value="false"/>
        <walkingareas value="false"/>
    </processing>

</configuration>
-->

<net version="0.27" junctionCornerDetail="5" xmlns:xsi="http://www.w3.org/2001/XMLSchema-instance" xsi:noNamespaceSchemaLocation="http://sumo.dlr.de/xsd/net_file.xsd">

    <location netOffset="-535704.09,-5749389.56" convBoundary="0.00,154.60,1192.57,817.28" origBoundary="-8.508145,51.894052,-8.460795,51.901592" projParameter="+proj=utm +zone=29 +ellps=WGS84 +datum=WGS84 +units=m +no_defs"/>

    <type id="highway.bridleway" priority="1" numLanes="1" speed="2.78" allow="pedestrian" oneway="1" width="2.00"/>
    <type id="highway.bus_guideway" priority="1" numLanes="1" speed="8.33" allow="bus" oneway="1"/>
    <type id="highway.cycleway" priority="1" numLanes="1" speed="5.56" allow="bicycle" oneway="0" width="1.00"/>
    <type id="highway.footway" priority="1" numLanes="1" speed="2.78" allow="pedestrian" oneway="1" width="2.00"/>
    <type id="highway.ford" priority="1" numLanes="1" speed="2.78" allow="army" oneway="0"/>
    <type id="highway.living_street" priority="3" numLanes="1" speed="2.78" disallow="tram rail_urban rail rail_electric ship" oneway="0"/>
    <type id="highway.motorway" priority="13" numLanes="2" speed="44.44" allow="private emergency authority army vip passenger hov taxi bus coach delivery truck trailer motorcycle evehicle custom1 custom2" oneway="1"/>
    <type id="highway.motorway_link" priority="12" numLanes="1" speed="22.22" allow="private emergency authority army vip passenger hov taxi bus coach delivery truck trailer motorcycle evehicle custom1 custom2" oneway="1"/>
    <type id="highway.path" priority="1" numLanes="1" speed="2.78" allow="bicycle pedestrian" oneway="1" width="2.00"/>
    <type id="highway.pedestrian" priority="1" numLanes="1" speed="2.78" allow="pedestrian" oneway="1" width="2.00"/>
    <type id="highway.primary" priority="9" numLanes="2" speed="27.78" disallow="tram rail_urban rail rail_electric ship" oneway="0"/>
    <type id="highway.primary_link" priority="8" numLanes="1" speed="22.22" disallow="tram rail_urban rail rail_electric ship" oneway="0"/>
    <type id="highway.raceway" priority="14" numLanes="2" speed="83.33" allow="vip" oneway="0"/>
    <type id="highway.residential" priority="4" numLanes="1" speed="13.89" disallow="tram rail_urban rail rail_electric ship" oneway="0"/>
    <type id="highway.secondary" priority="7" numLanes="2" speed="27.78" disallow="tram rail_urban rail rail_electric ship" oneway="0"/>
    <type id="highway.secondary_link" priority="6" numLanes="1" speed="22.22" disallow="tram rail_urban rail rail_electric ship" oneway="0"/>
    <type id="highway.service" priority="2" numLanes="1" speed="5.56" allow="delivery bicycle pedestrian" oneway="0"/>
    <type id="highway.services" priority="1" numLanes="1" speed="8.33" disallow="tram rail_urban rail rail_electric ship" oneway="0"/>
    <type id="highway.stairs" priority="1" numLanes="1" speed="1.39" allow="pedestrian" oneway="1" width="2.00"/>
    <type id="highway.step" priority="1" numLanes="1" speed="1.39" allow="pedestrian" oneway="1" width="2.00"/>
    <type id="highway.steps" priority="1" numLanes="1" speed="1.39" allow="pedestrian" oneway="1" width="2.00"/>
    <type id="highway.tertiary" priority="6" numLanes="1" speed="22.22" disallow="tram rail_urban rail rail_electric ship" oneway="0"/>
    <type id="highway.tertiary_link" priority="5" numLanes="1" speed="22.22" disallow="tram rail_urban rail rail_electric ship" oneway="0"/>
    <type id="highway.track" priority="1" numLanes="1" speed="5.56" disallow="tram rail_urban rail rail_electric ship" oneway="0"/>
    <type id="highway.trunk" priority="11" numLanes="2" speed="27.78" disallow="tram rail_urban rail rail_electric bicycle pedestrian ship" oneway="0"/>
    <type id="highway.trunk_link" priority="10" numLanes="1" speed="22.22" disallow="tram rail_urban rail rail_electric bicycle pedestrian ship" oneway="0"/>
    <type id="highway.unclassified" priority="5" numLanes="1" speed="13.89" disallow="tram rail_urban rail rail_electric ship" oneway="0"/>
    <type id="highway.unsurfaced" priority="1" numLanes="1" speed="8.33" disallow="tram rail_urban rail rail_electric ship" oneway="0"/>
    <type id="railway.light_rail" priority="15" numLanes="1" speed="27.78" allow="rail_urban" oneway="1"/>
    <type id="railway.preserved" priority="15" numLanes="1" speed="27.78" allow="rail" oneway="1"/>
    <type id="railway.rail" priority="15" numLanes="1" speed="83.33" allow="rail rail_electric" oneway="1"/>
    <type id="railway.subway" priority="15" numLanes="1" speed="27.78" allow="rail_urban" oneway="1"/>
    <type id="railway.tram" priority="15" numLanes="1" speed="13.89" allow="tram" oneway="1"/>

    <edge id=":1339492659_0" function="internal">
        <lane id=":1339492659_0_0" index="0" disallow="tram rail_urban rail rail_electric ship" speed="13.89" length="4.82" shape="329.99,669.36 328.77,668.51 328.37,667.68 328.80,666.86 330.05,666.06"/>
    </edge>
    <edge id=":1339492668_0" function="internal">
        <lane id=":1339492668_0_0" index="0" disallow="tram rail_urban rail rail_electric ship" speed="13.89" length="4.82" shape="355.53,640.18 356.53,639.08 357.41,638.80 358.16,639.33 358.79,640.68"/>
    </edge>
    <edge id=":1339492682_0" function="internal">
        <lane id=":1339492682_0_0" index="0" disallow="tram rail_urban rail rail_electric ship" speed="13.89" length="9.89" shape="358.54,669.53 348.65,669.68"/>
    </edge>
    <edge id=":1339492682_1" function="internal">
        <lane id=":1339492682_1_0" index="0" disallow="tram rail_urban rail rail_electric ship" speed="13.89" length="5.94" shape="358.54,669.53 355.30,669.28 353.13,668.12 353.03,667.92"/>
    </edge>
    <edge id=":1339492682_2" function="internal">
        <lane id=":1339492682_2_0" index="0" disallow="tram rail_urban rail rail_electric ship" speed="13.89" length="2.53" shape="358.54,669.53 357.26,668.77 356.81,667.97 356.86,667.86"/>
    </edge>
    <edge id=":1339492682_9" function="internal">
        <lane id=":1339492682_9_0" index="0" speed="13.89" length="5.06" shape="353.03,667.92 352.04,666.06 352.03,663.10"/>
    </edge>
    <edge id=":1339492682_10" function="internal">
        <lane id=":1339492682_10_0" index="0" speed="13.89" length="2.29" shape="356.86,667.86 357.18,667.13 358.37,666.24"/>
    </edge>
    <edge id=":1339492682_3" function="internal">
        <lane id=":1339492682_3_0" index="0" disallow="tram rail_urban rail rail_electric ship" speed="13.89" length="5.57" shape="355.44,662.65 355.40,664.29 355.88,665.43 356.87,666.08 358.37,666.24"/>
    </edge>
    <edge id=":1339492682_4" function="internal">
        <lane id=":1339492682_4_0" index="0" disallow="tram rail_urban rail rail_electric ship" speed="13.89" length="10.81" shape="355.44,662.65 354.60,665.76 353.20,667.97 351.21,669.28 348.65,669.68"/>
    </edge>
    <edge id=":1339492682_5" function="internal">
        <lane id=":1339492682_5_0" index="0" disallow="tram rail_urban rail rail_electric ship" speed="13.89" length="5.02" shape="355.44,662.65 354.75,664.04 353.96,664.58 353.05,664.27 352.03,663.10"/>
    </edge>
    <edge id=":1339492682_6" function="internal">
        <lane id=":1339492682_6_0" index="0" disallow="tram rail_urban rail rail_electric ship" speed="13.89" length="5.16" shape="348.71,666.38 349.97,666.19 350.94,665.58 351.63,664.55 352.03,663.10"/>
    </edge>
    <edge id=":1339492682_7" function="internal">
        <lane id=":1339492682_7_0" index="0" disallow="tram rail_urban rail rail_electric ship" speed="13.89" length="9.66" shape="348.71,666.38 358.37,666.24"/>
    </edge>
    <edge id=":1339492682_8" function="internal">
        <lane id=":1339492682_8_0" index="0" disallow="tram rail_urban rail rail_electric ship" speed="13.89" length="2.41" shape="348.71,666.38 349.93,667.22 350.33,668.06"/>
    </edge>
    <edge id=":1339492682_11" function="internal">
        <lane id=":1339492682_11_0" index="0" speed="13.89" length="2.41" shape="350.33,668.06 349.91,668.87 348.65,669.68"/>
    </edge>
    <edge id=":1412417647_0" function="internal">
        <lane id=":1412417647_0_0" index="0" disallow="tram rail_urban rail rail_electric bicycle pedestrian ship" speed="13.89" length="4.82" shape="587.07,769.33 586.23,770.55 585.39,770.95 584.58,770.52 583.77,769.27"/>
    </edge>
    <edge id=":1412417655_0" function="internal">
        <lane id=":1412417655_0_0" index="0" disallow="tram rail_urban rail rail_electric bicycle pedestrian ship" speed="13.89" length="3.13" shape="1050.79,647.50 1048.67,645.22"/>
        <lane id=":1412417655_0_1" index="1" disallow="tram rail_urban rail rail_electric bicycle pedestrian ship" speed="13.89" length="3.13" shape="1054.04,646.90 1051.91,644.57"/>
    </edge>
    <edge id=":1412417656_0" function="internal">
        <lane id=":1412417656_0_0" index="0" disallow="tram rail_urban rail rail_electric bicycle pedestrian ship" speed="13.89" length="3.39" shape="591.21,715.31 594.48,717.53"/>
        <lane id=":1412417656_0_1" index="1" disallow="tram rail_urban rail rail_electric bicycle pedestrian ship" speed="13.89" length="3.39" shape="587.91,715.19 591.18,717.48"/>
        <lane id=":1412417656_0_2" index="2" disallow="tram rail_urban rail rail_electric bicycle pedestrian ship" speed="13.89" length="3.39" shape="587.91,715.19 587.88,717.43"/>
    </edge>
    <edge id=":1412417656_3" function="internal">
        <lane id=":1412417656_3_0" index="0" disallow="tram rail_urban rail rail_electric bicycle pedestrian ship" speed="13.89" length="3.35" shape="581.28,717.33 578.01,715.09"/>
        <lane id=":1412417656_3_1" index="1" disallow="tram rail_urban rail rail_electric bicycle pedestrian ship" speed="13.89" length="3.35" shape="584.58,717.38 581.31,715.16"/>
        <lane id=":1412417656_3_2" index="2" disallow="tram rail_urban rail rail_electric bicycle pedestrian ship" speed="13.89" length="3.35" shape="584.58,717.38 584.61,715.23"/>
    </edge>
    <edge id=":146155950_0" function="internal">
        <lane id=":146155950_0_0" index="0" disallow="tram rail_urban rail rail_electric ship" speed="8.33" length="0.26" shape="403.54,414.90 403.46,415.13"/>
        <lane id=":146155950_0_1" index="1" disallow="tram rail_urban rail rail_electric ship" speed="8.33" length="0.26" shape="400.44,413.77 400.35,414.04"/>
    </edge>
    <edge id=":146155950_2" function="internal">
        <lane id=":146155950_2_0" index="0" disallow="tram rail_urban rail rail_electric ship" speed="8.33" length="0.33" shape="394.12,411.85 394.24,411.52"/>
        <lane id=":146155950_2_1" index="1" disallow="tram rail_urban rail rail_electric ship" speed="8.33" length="0.33" shape="397.23,412.94 397.34,412.65"/>
    </edge>
    <edge id=":146156624_0" function="internal">
        <lane id=":146156624_0_0" index="0" disallow="tram rail_urban rail rail_electric ship" speed="9.73" length="7.89" shape="330.05,212.67 328.84,211.89 328.26,210.45 328.30,208.37 328.97,205.63"/>
    </edge>
    <edge id=":146156624_1" function="internal">
        <lane id=":146156624_1_0" index="0" disallow="tram rail_urban rail rail_electric ship" speed="13.89" length="9.43" shape="322.86,213.54 325.82,204.62"/>
        <lane id=":146156624_1_1" index="1" disallow="tram rail_urban rail rail_electric ship" speed="13.89" length="9.43" shape="325.98,214.61 328.97,205.63"/>
    </edge>
    <edge id=":146156624_3" function="internal">
        <lane id=":146156624_3_0" index="0" allow="delivery bicycle pedestrian" speed="9.73" length="7.86" shape="325.98,214.61 327.07,212.05 328.27,210.34 329.58,209.50 331.00,209.51"/>
    </edge>
    <edge id=":148639620_0" function="internal">
        <lane id=":148639620_0_0" index="0" disallow="tram rail_urban rail rail_electric ship" speed="13.89" length="0.30" shape="871.47,368.57 871.75,368.68"/>
        <lane id=":148639620_0_1" index="1" disallow="tram rail_urban rail rail_electric ship" speed="13.89" length="0.30" shape="870.31,371.66 870.59,371.77"/>
    </edge>
    <edge id=":1486417531_0" function="internal">
        <lane id=":1486417531_0_0" index="0" disallow="tram rail_urban rail rail_electric bicycle pedestrian ship" speed="8.33" length="0.18" shape="530.01,467.00 529.96,467.00 529.92,466.99 529.89,466.99 529.83,466.99"/>
    </edge>
    <edge id=":1486417531_1" function="internal">
        <lane id=":1486417531_1_0" index="0" disallow="tram rail_urban rail rail_electric bicycle pedestrian ship" speed="8.33" length="0.55" shape="529.76,463.69 529.92,463.69 530.04,463.69 530.15,463.70 530.31,463.71"/>
    </edge>
    <edge id=":1486417534_0" function="internal">
        <lane id=":1486417534_0_0" index="0" disallow="tram rail_urban rail rail_electric bicycle pedestrian ship" speed="8.33" length="6.27" shape="580.32,476.29 574.34,474.39"/>
    </edge>
    <edge id=":1486417534_1" function="internal">
        <lane id=":1486417534_1_0" index="0" disallow="tram rail_urban rail rail_electric bicycle pedestrian ship" speed="8.33" length="6.42" shape="575.27,471.23 581.39,473.17"/>
    </edge>
    <edge id=":1486417534_2" function="internal">
        <lane id=":1486417534_2_0" index="0" disallow="tram rail_urban rail rail_electric bicycle pedestrian ship" speed="8.33" length="5.07" shape="576.32,478.31 576.61,476.93 576.37,475.82 575.61,474.98 574.34,474.39"/>
    </edge>
    <edge id=":1486417534_3" function="internal">
        <lane id=":1486417534_3_0" index="0" disallow="tram rail_urban rail rail_electric bicycle pedestrian ship" speed="8.33" length="7.92" shape="576.32,478.31 577.47,475.69 578.69,473.96 580.00,473.12 581.39,473.17"/>
    </edge>
    <edge id=":1486417536_0" function="internal">
        <lane id=":1486417536_0_0" index="0" disallow="tram rail_urban rail rail_electric bicycle pedestrian ship" speed="8.33" length="5.13" shape="429.20,494.98 428.64,493.66 427.80,492.89 426.69,492.66 425.30,492.98"/>
    </edge>
    <edge id=":1486417536_1" function="internal">
        <lane id=":1486417536_1_0" index="0" disallow="tram rail_urban rail rail_electric bicycle pedestrian ship" speed="8.33" length="7.90" shape="429.20,494.98 428.62,492.13 428.57,489.97 429.05,488.49 430.05,487.70"/>
    </edge>
    <edge id=":1486417536_2" function="internal">
        <lane id=":1486417536_2_0" index="0" disallow="tram rail_urban rail rail_electric bicycle pedestrian ship" speed="8.33" length="6.25" shape="431.16,490.80 425.30,492.98"/>
    </edge>
    <edge id=":1486417536_3" function="internal">
        <lane id=":1486417536_3_0" index="0" disallow="tram rail_urban rail rail_electric bicycle pedestrian ship" speed="8.33" length="6.32" shape="424.12,489.89 430.05,487.70"/>
    </edge>
    <edge id=":1486417541_0" function="internal">
        <lane id=":1486417541_0_0" index="0" disallow="tram rail_urban rail rail_electric bicycle pedestrian ship" speed="8.33" length="0.23" shape="682.44,551.15 682.41,551.09 682.39,551.05 682.37,551.01 682.33,550.96"/>
    </edge>
    <edge id=":1486417541_1" function="internal">
        <lane id=":1486417541_1_0" index="0" disallow="tram rail_urban rail rail_electric bicycle pedestrian ship" speed="8.33" length="0.69" shape="685.07,549.12 685.19,549.29 685.26,549.41 685.33,549.54 685.42,549.72"/>
    </edge>
    <edge id=":1486417545_0" function="internal">
        <lane id=":1486417545_0_0" index="0" disallow="tram rail_urban rail rail_electric bicycle pedestrian ship" speed="13.89" length="13.29" shape="736.34,696.93 732.46,697.03 729.79,696.29 727.11,695.52 723.22,695.52"/>
        <lane id=":1486417545_0_1" index="1" disallow="tram rail_urban rail rail_electric bicycle pedestrian ship" speed="13.89" length="13.29" shape="735.82,693.67 731.97,693.77 729.31,693.03 726.65,692.25 722.79,692.25"/>
    </edge>
    <edge id=":1486417545_2" function="internal">
        <lane id=":1486417545_2_0" index="0" disallow="tram rail_urban rail rail_electric bicycle pedestrian ship" speed="11.11" length="6.61" shape="735.30,690.41 731.74,690.56 728.96,689.74 728.84,689.64"/>
    </edge>
    <edge id=":1486417545_8" function="internal">
        <lane id=":1486417545_8_0" index="0" speed="11.11" length="5.57" shape="728.84,689.64 726.94,687.96 725.68,685.21"/>
    </edge>
    <edge id=":1486417545_3" function="internal">
        <lane id=":1486417545_3_0" index="0" disallow="tram rail_urban rail rail_electric bicycle pedestrian ship" speed="11.11" length="7.26" shape="728.87,684.35 729.60,685.87 730.83,686.85 732.55,687.28 734.78,687.16"/>
    </edge>
    <edge id=":1486417545_4" function="internal">
        <lane id=":1486417545_4_0" index="0" disallow="tram rail_urban rail rail_electric bicycle pedestrian ship" speed="11.11" length="16.85" shape="728.87,684.35 729.49,687.83 729.70,691.41 729.90,695.65 730.51,701.09"/>
    </edge>
    <edge id=":1486417545_5" function="internal">
        <lane id=":1486417545_5_0" index="0" disallow="tram rail_urban rail rail_electric bicycle pedestrian ship" speed="11.11" length="11.72" shape="728.87,684.35 729.18,687.41 728.27,689.75 726.14,691.36 722.79,692.25"/>
    </edge>
    <edge id=":1486417545_6" function="internal">
        <lane id=":1486417545_6_0" index="0" disallow="tram rail_urban rail rail_electric bicycle pedestrian ship" speed="13.89" length="12.55" shape="722.35,688.97 734.78,687.16"/>
    </edge>
    <edge id=":1486417545_7" function="internal">
        <lane id=":1486417545_7_0" index="0" disallow="tram rail_urban rail rail_electric bicycle pedestrian ship" speed="13.89" length="2.71" shape="722.35,688.97 723.75,689.62 724.31,690.65"/>
    </edge>
    <edge id=":1486417545_9" function="internal">
        <lane id=":1486417545_9_0" index="0" speed="13.89" length="11.48" shape="724.31,690.65 725.03,691.96 726.20,695.97 727.26,701.68"/>
    </edge>
    <edge id=":1486422166_0" function="internal">
        <lane id=":1486422166_0_0" index="0" allow="bicycle" speed="9.73" length="3.24" width="1.00" shape="1061.35,725.48 1061.51,726.76 1061.76,727.33 1062.08,727.17 1062.48,726.29"/>
    </edge>
    <edge id=":1486422166_1" function="internal">
        <lane id=":1486422166_1_0" index="0" disallow="tram rail_urban rail rail_electric ship" speed="13.89" length="3.92" shape="1061.35,725.48 1061.10,724.57 1060.53,724.00 1059.62,723.76 1058.39,723.86"/>
    </edge>
    <edge id=":1486422166_2" function="internal">
        <lane id=":1486422166_2_0" index="0" disallow="tram rail_urban rail rail_electric bicycle pedestrian ship" speed="13.89" length="9.05" shape="1061.35,725.48 1061.14,722.89 1060.95,721.13 1060.68,719.37 1060.23,716.81"/>
        <lane id=":1486422166_2_1" index="1" disallow="tram rail_urban rail rail_electric bicycle pedestrian ship" speed="13.89" length="9.05" shape="1064.64,725.22 1064.42,722.54 1064.22,720.72 1063.94,718.90 1063.49,716.25"/>
        <lane id=":1486422166_2_2" index="2" disallow="tram rail_urban rail rail_electric bicycle pedestrian ship" speed="13.89" length="9.05" shape="1067.93,724.97 1067.70,722.20 1067.50,720.31 1067.21,718.43 1066.74,715.69"/>
    </edge>
    <edge id=":1486422166_5" function="internal">
        <lane id=":1486422166_5_0" index="0" disallow="tram rail_urban rail rail_electric ship" speed="13.89" length="12.84" shape="1071.01,721.40 1058.39,723.86"/>
        <lane id=":1486422166_5_1" index="1" disallow="tram rail_urban rail rail_electric ship" speed="13.89" length="12.84" shape="1070.36,718.16 1057.77,720.62"/>
    </edge>
    <edge id=":1486422166_7" function="internal">
        <lane id=":1486422166_7_0" index="0" disallow="tram rail_urban rail rail_electric bicycle pedestrian ship" speed="13.89" length="7.92" shape="1070.36,718.16 1067.56,718.52 1065.48,718.32 1064.12,717.56 1063.49,716.25"/>
    </edge>
    <edge id=":1486422166_8" function="internal">
        <lane id=":1486422166_8_0" index="0" disallow="tram rail_urban rail rail_electric bicycle pedestrian ship" speed="13.89" length="5.03" shape="1070.36,718.16 1068.97,718.24 1067.91,717.85 1067.17,717.00 1066.74,715.69"/>
    </edge>
    <edge id=":1486492895_0" function="internal">
        <lane id=":1486492895_0_0" index="0" disallow="tram rail_urban rail rail_electric bicycle pedestrian ship" speed="8.33" length="0.29" shape="556.83,470.49 556.55,470.44"/>
    </edge>
    <edge id=":1486492975_0" function="internal">
        <lane id=":1486492975_0_0" index="0" disallow="tram rail_urban rail rail_electric ship" speed="13.89" length="0.58" shape="950.82,525.79 950.83,525.85 950.83,525.89 950.84,525.93 950.85,525.98"/>
        <lane id=":1486492975_0_1" index="1" disallow="tram rail_urban rail rail_electric ship" speed="13.89" length="0.58" shape="947.53,526.01 947.54,526.18 947.55,526.30 947.57,526.42 947.60,526.59"/>
        <lane id=":1486492975_0_2" index="2" disallow="tram rail_urban rail rail_electric ship" speed="13.89" length="0.58" shape="944.24,526.23 944.26,526.51 944.28,526.71 944.31,526.91 944.36,527.19"/>
    </edge>
    <edge id=":148680008_0" function="internal">
        <lane id=":148680008_0_0" index="0" disallow="tram rail_urban rail rail_electric ship" speed="13.89" length="0.30" shape="900.83,379.66 901.12,379.78"/>
        <lane id=":148680008_0_1" index="1" disallow="tram rail_urban rail rail_electric ship" speed="13.89" length="0.30" shape="899.66,382.75 899.92,382.85"/>
    </edge>
    <edge id=":149560208_0" function="internal">
        <lane id=":149560208_0_0" index="0" disallow="tram rail_urban rail rail_electric ship" speed="13.89" length="9.59" shape="1124.99,624.81 1115.59,626.70"/>
    </edge>
    <edge id=":149560208_1" function="internal">
        <lane id=":149560208_1_0" index="0" disallow="tram rail_urban rail rail_electric ship" speed="13.89" length="5.32" shape="1124.99,624.81 1122.05,625.00 1119.82,624.18"/>
    </edge>
    <edge id=":149560208_7" function="internal">
        <lane id=":149560208_7_0" index="0" speed="13.89" length="5.32" shape="1119.82,624.18 1118.28,622.37 1117.45,619.55"/>
    </edge>
    <edge id=":149560208_2" function="internal">
        <lane id=":149560208_2_0" index="0" disallow="tram rail_urban rail rail_electric ship" speed="13.89" length="5.07" shape="1120.71,619.07 1121.11,620.41 1121.84,621.28 1122.91,621.67 1124.31,621.58"/>
    </edge>
    <edge id=":149560208_3" function="internal">
        <lane id=":149560208_3_0" index="0" disallow="tram rail_urban rail rail_electric ship" speed="13.89" length="10.38" shape="1120.71,619.07 1120.75,621.97 1119.91,624.21 1118.19,625.79 1115.59,626.70"/>
    </edge>
    <edge id=":149560208_4" function="internal">
        <lane id=":149560208_4_0" index="0" disallow="tram rail_urban rail rail_electric ship" speed="13.89" length="4.82" shape="1120.71,619.07 1120.08,620.41 1119.32,620.94 1118.44,620.65 1117.45,619.55"/>
    </edge>
    <edge id=":149560208_5" function="internal">
        <lane id=":149560208_5_0" index="0" disallow="tram rail_urban rail rail_electric ship" speed="13.89" length="5.23" shape="1114.96,623.46 1116.23,623.00 1117.07,622.20 1117.48,621.05 1117.45,619.55"/>
    </edge>
    <edge id=":149560208_6" function="internal">
        <lane id=":149560208_6_0" index="0" disallow="tram rail_urban rail rail_electric ship" speed="13.89" length="9.54" shape="1114.96,623.46 1124.31,621.58"/>
    </edge>
    <edge id=":1514177476_0" function="internal">
        <lane id=":1514177476_0_0" index="0" disallow="tram rail_urban rail rail_electric ship" speed="8.33" length="9.37" shape="460.63,246.30 457.68,255.18"/>
        <lane id=":1514177476_0_1" index="1" disallow="tram rail_urban rail rail_electric ship" speed="8.33" length="9.37" shape="457.51,245.23 454.54,254.15"/>
    </edge>
    <edge id=":1514177476_2" function="internal">
        <lane id=":1514177476_2_0" index="0" allow="delivery bicycle pedestrian" speed="6.95" length="4.42" shape="457.51,245.23 456.02,247.69 454.66,248.43"/>
    </edge>
    <edge id=":1514177476_8" function="internal">
        <lane id=":1514177476_8_0" index="0" speed="6.95" length="8.84" shape="454.66,248.43 453.61,248.99 450.30,249.13 446.08,248.11"/>
    </edge>
    <edge id=":1514177476_3" function="internal">
        <lane id=":1514177476_3_0" index="0" disallow="tram rail_urban rail rail_electric ship" speed="6.95" length="5.57" shape="446.68,244.83 448.31,245.18 449.62,245.00 450.60,244.31 451.27,243.09"/>
    </edge>
    <edge id=":1514177476_4" function="internal">
        <lane id=":1514177476_4_0" index="0" disallow="tram rail_urban rail rail_electric ship" speed="6.95" length="13.63" shape="446.68,244.83 450.85,246.67 453.55,248.84 454.78,251.33 454.54,254.15"/>
    </edge>
    <edge id=":1514177476_5" function="internal">
        <lane id=":1514177476_5_0" index="0" allow="delivery bicycle pedestrian" speed="6.95" length="5.18" shape="448.27,252.11 448.49,250.76 448.20,249.65 447.40,248.76 446.08,248.11"/>
    </edge>
    <edge id=":1514177476_6" function="internal">
        <lane id=":1514177476_6_0" index="0" disallow="tram rail_urban rail rail_electric ship" speed="8.33" length="9.47" shape="448.27,252.11 451.27,243.09"/>
        <lane id=":1514177476_6_1" index="1" disallow="tram rail_urban rail rail_electric ship" speed="8.33" length="9.47" shape="451.41,253.13 454.39,244.16"/>
    </edge>
    <edge id=":1515344231_0" function="internal">
        <lane id=":1515344231_0_0" index="0" disallow="tram rail_urban rail rail_electric bicycle pedestrian ship" speed="8.33" length="0.22" shape="690.14,567.21 690.12,567.14 690.10,567.10 690.08,567.06 690.06,567.00"/>
    </edge>
    <edge id=":1515344231_1" function="internal">
        <lane id=":1515344231_1_0" index="0" disallow="tram rail_urban rail rail_electric bicycle pedestrian ship" speed="8.33" length="0.67" shape="693.03,565.57 693.12,565.75 693.17,565.88 693.22,566.01 693.28,566.20"/>
    </edge>
    <edge id=":1517550640_0" function="internal">
        <lane id=":1517550640_0_0" index="0" disallow="tram rail_urban rail rail_electric ship" speed="13.89" length="6.21" shape="1165.69,566.47 1159.49,566.41"/>
    </edge>
    <edge id=":1517550640_1" function="internal">
        <lane id=":1517550640_1_0" index="0" disallow="tram rail_urban rail rail_electric ship" speed="13.89" length="2.41" shape="1165.69,566.47 1164.46,565.63 1164.06,564.80"/>
    </edge>
    <edge id=":1517550640_6" function="internal">
        <lane id=":1517550640_6_0" index="0" speed="13.89" length="2.41" shape="1164.06,564.80 1164.48,563.98 1165.72,563.17"/>
    </edge>
    <edge id=":1517550640_2" function="internal">
        <lane id=":1517550640_2_0" index="0" disallow="tram rail_urban rail rail_electric ship" speed="13.89" length="6.21" shape="1159.52,563.11 1165.72,563.17"/>
    </edge>
    <edge id=":1517550640_3" function="internal">
        <lane id=":1517550640_3_0" index="0" disallow="tram rail_urban rail rail_electric ship" speed="13.89" length="2.41" shape="1159.52,563.11 1160.75,563.95 1161.15,564.77"/>
    </edge>
    <edge id=":1517550640_7" function="internal">
        <lane id=":1517550640_7_0" index="0" speed="13.89" length="2.41" shape="1161.15,564.77 1160.73,565.60 1159.49,566.41"/>
    </edge>
    <edge id=":1517550640_4" function="internal">
        <lane id=":1517550640_4_0" index="0" disallow="tram rail_urban rail rail_electric ship" speed="9.73" length="5.07" shape="1162.46,569.63 1162.36,568.23 1161.83,567.23 1160.87,566.62 1159.49,566.41"/>
    </edge>
    <edge id=":1517550640_5" function="internal">
        <lane id=":1517550640_5_0" index="0" disallow="tram rail_urban rail rail_electric ship" speed="9.73" length="7.85" shape="1162.46,569.63 1162.84,566.79 1163.50,564.77 1164.47,563.56 1165.72,563.17"/>
    </edge>
    <edge id=":1517550643_0" function="internal">
        <lane id=":1517550643_0_0" index="0" disallow="tram rail_urban rail rail_electric ship" speed="13.89" length="3.90" shape="1071.85,635.15 1070.81,635.06 1070.19,634.50 1069.55,633.84 1068.50,633.48"/>
    </edge>
    <edge id=":1517550643_1" function="internal">
        <lane id=":1517550643_1_0" index="0" disallow="tram rail_urban rail rail_electric ship" speed="13.89" length="2.53" shape="1068.45,634.03 1069.38,633.85 1069.70,633.70 1069.41,633.58 1068.50,633.48"/>
    </edge>
    <edge id=":1517550643_2" function="internal">
        <lane id=":1517550643_2_0" index="0" disallow="tram rail_urban rail rail_electric ship" speed="13.89" length="3.61" shape="1068.45,634.03 1069.37,633.63 1069.84,633.00 1070.31,632.34 1071.22,631.91"/>
    </edge>
    <edge id=":1517550661_0" function="internal">
        <lane id=":1517550661_0_0" index="0" disallow="tram rail_urban rail rail_electric ship" speed="13.89" length="9.60" shape="1045.03,628.35 1042.94,619.03"/>
        <lane id=":1517550661_0_1" index="1" disallow="tram rail_urban rail rail_electric ship" speed="13.89" length="9.60" shape="1048.25,627.61 1046.13,618.19"/>
    </edge>
    <edge id=":1517550661_2" function="internal">
        <lane id=":1517550661_2_0" index="0" disallow="tram rail_urban rail rail_electric ship" speed="13.89" length="9.62" shape="1051.59,625.93 1049.70,623.77 1048.24,622.36 1047.09,620.80 1046.13,618.19"/>
    </edge>
    <edge id=":1517550680_0" function="internal">