<?xml version="1.0" encoding="UTF-8"?>

<!-- generated on Sat Mar  3 16:10:20 2018 by SUMO duarouter Version 0.32.0
<?xml version="1.0" encoding="UTF-8"?>

<configuration xmlns:xsi="http://www.w3.org/2001/XMLSchema-instance" xsi:noNamespaceSchemaLocation="http://sumo.dlr.de/xsd/duarouterConfiguration.xsd">

    <input>
        <net-file value="osm.net.xml"/>
        <route-files value="osm.passenger.trips.xml"/>
    </input>

    <output>
        <output-file value="osm.passenger.rou.xml"/>
        <alternatives-output value="osm.passenger.rou.alt.xml"/>
    </output>

    <processing>
        <ignore-errors value="true"/>
    </processing>

    <time>
        <begin value="0"/>
        <end value="3600.0"/>
    </time>

    <report>
        <no-warnings value="true"/>
        <no-step-log value="true"/>
    </report>

</configuration>
-->

<routes xmlns:xsi="http://www.w3.org/2001/XMLSchema-instance" xsi:noNamespaceSchemaLocation="http://sumo.dlr.de/xsd/routes_file.xsd">
    <vType id="passenger" speedFactor="normc(1.00,0.10,0.20,2.00)" vClass="passenger"/>
    <vehicle id="veh1" type="passenger" depart="16.02" departLane="best">
        <route edges="127658897 127658904 -224709345#2 748201 748206#0 5364457#0 5364457#1 17453746#0 17453746#1 5312294 -138397654#11 38886705 15070834 138124569#4 138124569#5 138124569#7 138124569#8 138124569#9 138124569#10 192516747#0 192516747#1 29427154 -22634602#4 -22634602#3 -22634602#2 -22634602#1 -22634602#0"/>
    </vehicle>
    <vehicle id="veh2" type="passenger" depart="32.04" departLane="best">
        <route edges="-138397651#3 -138397651#2 15134931#0 15134931#1 337008054#1 138397652 159762888#1 174685595#0 174685595#1 174674980#0 174674980#1 727153 55637437#0 55637437#1 55637437#3 -39861649#2 -39861649#1 -224709345#2 -224709345#1 -224709345#0 129518914 -206582209#1 -206582209#0"/>
    </vehicle>
    <vehicle id="veh4" type="passenger" depart="64.09" departLane="best">
        <route edges="-80511362 -5312339 174685587 174685595#0 174685595#1 174674980#0 174674980#1 727153 55637437#0 55637437#1 55637437#3 -138397654#17 -138397654#16 -138397654#14 -138397654#13 -138397654#12 -138397654#11 17454861 17453746#1"/>
    </vehicle>
    <vehicle id="veh5" type="passenger" depart="80.11" departLane="best">
        <route edges="38886705 15070834 138124569#4 138124569#5 138124569#7 138124569#8 138124569#9 138124569#10 203831227#0 203831227#1 29313477 38375347 38375345#0 38375345#1 38375345#2 38375345#3 38375345#4 38375345#5 38375345#6 38375345#7 55637437#0 55637437#1 55637437#3 -39861649#2 -39861649#1 -224709345#2 -224709345#1 -224709345#0 129518914 -206582209#1 -119143323"/>
    </vehicle>
    <vehicle id="veh6" type="passenger" depart="96.13" departLane="best">
        <route edges="38375349#0 5312339 80511362 551983509 29313477 38375347 135349964#0 135349964#1 135349964#2 135349964#3 135349964#4 135349964#5 135349964#6 135349964#8 135349964#9 135349964#10 135349964#11 135349964#12 135349964#13 135349964#14 107557649#0 107557649#1 107557649#3 29425839#1 29425839#2"/>
    </vehicle>
    <vehicle id="veh7" type="passenger" depart="112.15" departLane="best">
        <route edges="727176 434298721 727180 127658900 727153 55637437#0 55637437#1 55637437#3 -138397654#17 -138397654#16 -138397654#14 -138397654#13 -138397654#12 -138397654#11 -138397654#9 -138397654#8 -138397654#7 -138397654#6 -138397654#5 -138397654#4 -138397654#3 -138397654#2 -138397654#1 -138397654#0 -556684640#1 -556684640#0 -40950946#0 -73552050#4"/>
    </vehicle>
    <vehicle id="veh8" type="passenger" depart="128.17" departLane="best">
        <route edges="-15134931#0 15134931#0 15134931#1 337008054#1 138397652 159762888#1 174685595#0 174685595#1 174674980#0 174674980#1 727153 55637437#0 55637437#1 55637437#3 -138397654#17 -138397654#16 -138397654#14 -138397654#13 -138397654#12 -138397654#11 -138397654#9 -138397654#8 -138397654#7 -138397654#6"/>
    </vehicle>
    <vehicle id="veh9" type="passenger" depart="144.19" departLane="best">
        <route edges="5312304 138124569#7 138124569#8 138124569#9 138124569#10 203831227#0 203831227#1 29313477 38375347 38375349#0 174685587"/>
    </vehicle>
    <vehicle id="veh10" type="passenger" depart="160.21" departLane="best">
        <route edges="151387781#1 -151387781#1 5312304 -20644837 -20644763#0 5312299#1 135349964#5 135349964#6 135349964#8 135349964#9 135349964#10 135349964#11 135349964#12 135349964#13 135349964#14 -138124564#3 138124564#3 73552050#0 73552050#2 73552050#3"/>
    </vehicle>
    <vehicle id="veh11" type="passenger" depart="176.24" departLane="best">
        <route edges="138125080#0 138125080#1 14891038 29427155 29313477 38375347 38375345#0 38375345#1 38375345#2 38375345#3 38375345#4 38375345#5 38375345#6 38375345#7 55637437#0 55637437#1 55637437#3 -39861649#2 -39861649#1 -224709345#2 -224709345#1 -224709345#0 -31404826#1 -14890634#1 14890634#1"/>
    </vehicle>
    <vehicle id="veh12" type="passenger" depart="192.26" departLane="best">
        <route edges="40950946#1 -556684640#0 -40950946#0 -73552050#4 -73552050#3 -73552050#2 -73552050#0 -138124564#3 -138124564#1 -138124564#0 138124572#0 138124572#1 138124572#2 138124569#0 138124569#1 138124569#2 138124569#3 138124569#4 138124569#5 138124569#7 138124569#8 138124569#9 138124569#10 203831227#0"/>
    </vehicle>
    <vehicle id="veh13" type="passenger" depart="208.28" departLane="best">
        <route edges="5312307#0 5312307#1 151387781#0 151387781#1 138124569#9 138124569#10 203831227#0 203831227#1 29313477 38375347 38375349#0 174685587 174685595#0 174685595#1 174674980#0 174674980#1 159762888#0"/>
    </vehicle>
    <vehicle id="veh14" type="passenger" depart="224.30" departLane="best">
        <route edges="236512046#0 236512046#1 236512046#2 727180 127658900 727153 55637437#0 55637437#1 55637437#3 -39861649#2 -39861649#1 -224709345#2 -224709345#1 -224709345#0 129518914 -129518914"/>
    </vehicle>
    <vehicle id="veh16" type="passenger" depart="256.34" departLane="best">
        <route edges="-138397654#6 138397654#6 138397654#7 138397654#8 138397654#9 38886705 15070834 138124569#4 138124569#5 138124569#7 138124569#8 138124569#9 138124569#10 192516747#0 192516747#1 29427154 -22634602#4 -22634602#3 -22634602#2 -22634602#1 -22634602#0"/>
    </vehicle>
    <vehicle id="veh17" type="passenger" depart="272.37" departLane="best">
        <route edges="-20644763#0 20644763#0 20644763#1 15070662#1 138124569#8 138124569#9 138124569#10 203831227#0 203831227#1 29313477 38375347 38375349#0 233809947 55637435 15134931#0 15134931#1 -337008054#0"/>
    </vehicle>
    <vehicle id="veh19" type="passenger" depart="304.41" departLane="best">
        <route edges="138125080#0 138125080#1 14891038 29427155 29313477 38375347 38375345#0 38375345#1 38375345#2 38375345#3 38375345#4 38375345#5 38375345#6 38375345#7 55637437#0 55637437#1 55637437#3 -39861649#2 -39861649#1 -224709345#2 -224709345#1 -224709345#0"/>
    </vehicle>
    <vehicle id="veh22" type="passenger" depart="352.47" departLane="best">
        <route edges="-556684640#0 -40950946#0 -73552050#4 -73552050#3 -73552050#2 -73552050#0 -138124564#3 -138124564#1 -138124564#0 138124572#0 138124572#1 138124572#2 138124569#0 138124569#1 138124569#2 138124569#3 138124569#4 138124569#5 138124569#7 138124569#8 138124569#9 138124569#10 203831227#0 203831227#1 29313477 38375347 135349964#0"/>
    </vehicle>
    <vehicle id="veh23" type="passenger" depart="368.49" departLane="best">
        <route edges="84603737 135349964#9 84603735 138124569#1 138124569#2 138124569#3 138124569#4 138124569#5 138124569#7 138124569#8 138124569#9 138124569#10 203831227#0 203831227#1 29313477 38375347 38375349#0 233809947 20647689 20647714#2 20647305"/>
    </vehicle>
    <vehicle id="veh26" type="passenger" depart="416.56" departLane="best">
        <route edges="135349964#5 135349964#6 135349964#8 135349964#9 135349964#10 135349964#11 135349964#12 135349964#13 135349964#14 -138124564#3 138124564#3 73552050#0 73552050#2 73552050#3 73552050#4 -61188951 -22635068"/>
    </vehicle>
    <vehicle id="veh29" type="passenger" depart="464.62" departLane="best">
        <route edges="556684639#1 31404826#1 224709345#0 224709345#1 748201 748206#0 5364457#0 5364457#1 17453746#0 17453746#1 5312294 -138397654#11 38886705 15070834 138124569#4 138124569#5"/>
    </vehicle>
    <vehicle id="veh30" type="passenger" depart="480.64" departLane="best">
        <route edges="127658897 127658904 -224709345#2 748201 748206#0 5364457#0 5364457#1 17453746#0 17453746#1 5312294 -138397654#11 38886705 15070834 138124569#4 138124569#5 138124569#7 138124569#8 138124569#9 138124569#10 192516747#0 192516747#1 29427154 -22634602#4"/>
    </vehicle>
    <vehicle id="veh31" type="passenger" depart="496.67" departLane="best">
        <route edges="174674980#0 174674980#1 727153 55637437#0 55637437#1 55637437#3 -138397654#17 -138397654#16 -138397654#14 -138397654#13 -138397654#12 -138397654#11 -138397654#9 -138397654#8 -138397654#7 -138397654#6 -138397654#5 -138397654#4 -138397654#3 -138397654#2 -138397654#1 -138397654#0 -556684640#1 -556684640#0 -40950946#0 -61188951 -22635068"/>
    </vehicle>
    <vehicle id="veh32" type="passenger" depart="512.69" departLane="best">
        <route edges="20644763#0 20644763#1 15070662#1 138124569#8 138124569#9 138124569#10 203831227#0 203831227#1 29313477 38375347 38375345#0 38375345#1 38375345#2 38375345#3 38375345#4 38375345#5 38375345#6 38375345#7 55637437#0 55637437#1 55637437#3 -39861649#2 -39861649#1 -224709345#2 -224709345#1 -224709345#0 -31404826#1 31312138#1 31312138#2 727157#1 727166"/>
    </vehicle>
    <vehicle id="veh33" type="passenger" depart="528.71" departLane="best">
        <route edges="138397651#2 -138397651#2 15134931#0 15134931#1 337008054#1 138397652 159762888#1 55637430 20647689 20647714#2 14891038 29427155 29313477 38375347 135349964#0 135349964#1 135349964#2 15070662#0 15070662#1 138124569#8 138124569#9 138124569#10 192516747#0 192516747#1 29427154 -22634602#4 -22634602#3 -22634602#2 -22634602#1 -22634602#0"/>
    </vehicle>
    <vehicle id="veh34" type="passenger" depart="544.73" departLane="best">
        <route edges="93100419#5 556684639#1 31404826#1 224709345#0 224709345#1 224709345#2 39861649#1 39861649#2 -55637437#3 -55637437#2 -55637437#0 -317727542 551736897 138397652"/>
    </vehicle>
    <vehicle id="veh35" type="passenger" depart="560.75" departLane="best">
        <route edges="-14890634#1 14890634#1 31404826#1 129518914 -336958620 31312156#1 31312126 -556684640#1 -556684640#0 -40950946#0 -73552050#4 -73552050#3 -73552050#2 -73552050#0 -138124564#3 -138124564#1 -138124564#0"/>
    </vehicle>
    <vehicle id="veh36" type="passenger" depart="576.77" departLane="best">
        <route edges="-206582209#1 206582209#1 -129518914 224709345#0 224709345#1 748201 748206#0 5364457#0 5364457#1 17453746#0 17453746#1 5312294 -138397654#11 38886705 15070834 138124569#4 138124569#5 -20644837 20644837"/>
    </vehicle>
    <vehicle id="veh37" type="passenger" depart="592.79" departLane="best">
        <route edges="38375345#4 38375345#5 38375345#6 38375345#7 -317727542 159762888#0 159762888#1 55637430 20647689 20647714#2 14891038 165598282 29313478 138124219"/>
    </vehicle>
    <vehicle id="veh38" type="passenger" depart="608.82" departLane="best">
        <route edges="93100419#4 93100419#5 556684639#1 31404826#1 224709345#0 224709345#1 224709345#2 39861649#1 39861649#2 -55637437#3 55637437#3 -138397654#17 138397654#17"/>
    </vehicle>
    <vehicle id="veh39" type="passenger" depart="624.84" departLane="best">
        <route edges="73552050#3 -73552050#3 -73552050#2 -73552050#0 -138124564#3 -138124564#1 -138124564#0 138124572#0 138124572#1 138124572#2 138124569#0 138124569#1 138124569#2 138124569#3 138124569#4 138124569#5 138124569#7 138124569#8 138124569#9 138124569#10 203831227#0 203831227#1 29313477 38375347 38375349#0 5312339 80511362 551983509"/>
    </vehicle>
    <vehicle id="veh40" type="passenger" depart="640.86" departLane="best">
        <route edges="22635068 61188951 40950946#0 40950946#1 556684640#1 138397654#0 138397654#1 138397654#2 138397654#3 138397654#4"/>
    </vehicle>
    <vehicle id="veh41" type="passenger" depart="656.88" departLane="best">
        <route edges="127658897 127658904 39861649#1 39861649#2 -55637437#3 -55637437#2 -55637437#0 -317727542 159762888#0 159762888#1 55637430 20647689 20647714#2 20647305"/>
    </vehicle>
    <vehicle id="veh42" type="passenger" depart="672.90" departLane="best">
        <route edges="-224709345#0 224709345#0 224709345#1 224709345#2 39861649#1 39861649#2 -55637437#3 -55637437#2 -55637437#0 -317727542 159762888#0 159762888#1 55637430 20647689 20647714#2 14891038 165598282 29313478 138124219"/>
    </vehicle>
    <vehicle id="veh44" type="passenger" depart="704.95" departLane="best">
        <route edges="5312307#1 151387781#0 5312304 -20644837 -20644763#0 5312299#1 135349964#5 135349964#6 135349964#8 135349964#9 135349964#10 135349964#11 135349964#12 135349964#13 135349964#14 -138124564#3 138124564#3 73552050#0 73552050#2 73552050#3 73552050#4 -61188951 -22635068"/>
    </vehicle>
    <vehicle id="veh45" type="passenger" depart="720.97" departLane="best">
        <route edges="556684638#1 93100419#1 93100419#4 93100419#5 556684639#1 31404826#1 224709345#0 224709345#1 224709345#2 39861649#1 39861649#2 -55637437#3 -55637437#2 55637437#1"/>
    </vehicle>
    <vehicle id="veh46" type="passenger" depart="736.99" departLane="best">
        <route edges="135349964#12 135349964#13 135349964#14 -138124564#3 -138124564#1 -138124564#0 138124572#0 138124572#1 138124572#2 138124569#0 138124569#1 138124569#2 138124569#3 138124569#4 138124569#5 138124569#7 138124569#8 138124569#9 138124569#10 203831227#0 203831227#1 29313477 38375347 38375349#0 233809947 20647689 20647714#2 20647305"/>
    </vehicle>
    <vehicle id="veh47" type="passenger" depart="753.01" departLane="best">
        <route edges="206582209#0 206582209#1 -129518914 224709345#0 224709345#1 224709345#2 39861649#1 39861649#2 -55637437#3 -55637437#2 -55637437#0 -317727542 551736897 -337008054#1 -15134931#1"/>
    </vehicle>
    <vehicle id="veh48" type="passenger" depart="769.03" departLane="best">
        <route edges="337008054#0 337008054#1 138397652 159762888#1 174685595#0 174685595#1 174674980#0 174674980#1 727153 55637437#0 55637437#1 55637437#3 -138397654#17 -138397654#16 -138397654#14 -138397654#13 -138397654#12 -138397654#11 -138397654#9 -138397654#8 -138397654#7 -138397654#6 -138397654#5 138397654#5"/>
    </vehicle>
    <vehicle id="veh49" type="passenger" depart="785.05" departLane="best">
        <route edges="337008054#1 138397652 159762888#1 174685595#0 174685595#1 174674980#0 174674980#1 727153 55637437#0 55637437#1 55637437#3 -138397654#17 138397654#17"/>
    </vehicle>
    <vehicle id="veh51" type="passenger" depart="817.10" departLane="best">
        <route edges="5312339 80511362 551983509 29313477 38375347 135349964#0 135349964#1 135349964#2 135349964#3 135349964#4 135349964#5 135349964#6 135349964#8 135349964#9 84603735 138124569#1 138124569#2 39020727#0 5312301#0 5312301#1"/>
    </vehicle>
    <vehicle id="veh52" type="passenger" depart="833.12" departLane="best">
        <route edges="135349964#2 135349964#3 135349964#4 135349964#5 135349964#6 135349964#8 135349964#9 135349964#10 135349964#11 135349964#12 135349964#13 135349964#14 -138124564#3 -138124564#1 -138124564#0 138124572#0 138124572#1 -138124572#1"/>
    </vehicle>
    <vehicle id="veh54" type="passenger" depart="865.16" departLane="best">
        <route edges="-138397654#8 138397654#8 138397654#9 138397654#11 138397654#12 138397654#13 138397654#14 138397654#16 138397654#17 -55637437#3 -55637437#2 -55637437#0 -317727542 551736897 -337008054#1 -15134931#1 -15134931#0 138397651#2"/>
    </vehicle>
    <vehicle id="veh55" type="passenger" depart="881.18" departLane="best">
        <route edges="-138397654#2 138397654#2 138397654#3 138397654#4 138397654#5 138397654#6 138397654#7 138397654#8 138397654#9 38886705 15070834 138124569#4 138124569#5 138124569#7 138124569#8 138124569#9 138124569#10 203831227#0 203831227#1 29313477 38375347 38375345#0 38375345#1 38375345#2 38375345#3 38375345#4 38375345#5"/>
    </vehicle>
    <vehicle id="veh56" type="passenger" depart="897.20" departLane="best">
        <route edges="337008054#0 337008054#1 138397652 159762888#1 174685595#0 174685595#1 174674980#0 174674980#1 727153 55637437#0 55637437#1 55637437#3 -39861649#2 -39861649#1 -224709345#2 -224709345#1 -224709345#0 -31404826#1 -14890634#1 -14890634#0"/>
    </vehicle>
    <vehicle id="veh57" type="passenger" depart="913.22" departLane="best">
        <route edges="14890634#0 14890634#1 31404826#1 224709345#0 224709345#1 748201 748206#0 748206#1 138397654#7 138397654#8 138397654#9"/>
    </vehicle>
    <vehicle id="veh58" type="passenger" depart="929.25" departLane="best">
        <route edges="159762888#0 159762888#1 174685595#0 174685595#1 174674980#0 174674980#1 727153 55637437#0 55637437#1 55637437#3 -39861649#2 -39861649#1 -224709345#2 -224709345#1 -224709345#0 -31404826#1 31312138#1"/>
    </vehicle>
    <vehicle id="veh59" type="passenger" depart="945.27" departLane="best">
        <route edges="-73552050#4 -73552050#3 -73552050#2 -73552050#0 -138124564#3 -138124564#1 -138124564#0 138124572#0 138124572#1 138124572#2 138124569#0 138124569#1 138124569#2 138124569#3 138124569#4 138124569#5 138124569#7 138124569#8 138124569#9 138124569#10 203831227#0 203831227#1 29313477 38375347 38375349#0 5312339 -5312339"/>
    </vehicle>
    <vehicle id="veh60" type="passenger" depart="961.29" departLane="best">
        <route edges="93100419#4 93100419#5 556684639#1 31404826#1 224709345#0 224709345#1 748201 748206#0 5364457#0 5364457#1 17453746#0 17453746#1 5312294 -138397654#11 38886705 15070834 138124569#4 138124569#5 138124569#7 138124569#8 138124569#9 138124569#10 192516747#0 192516747#1 29427154 20647392"/>
    </vehicle>
    <vehicle id="veh61" type="passenger" depart="977.31" departLane="best">
        <route edges="138124569#1 138124569#2 138124569#3 138124569#4 138124569#5 138124569#7 138124569#8 138124569#9 138124569#10 203831227#0 203831227#1 29313477 38375347 38375345#0 38375345#1 38375345#2 38375345#3 38375345#4 38375345#5 38375345#6 38375345#7 55637437#0 55637437#1 55637437#3 -138397654#17 -138397654#16 -138397654#14 -138397654#13 -138397654#12 -138397654#11 17454861 17453746#1"/>
    </vehicle>
    <vehicle id="veh63" type="passenger" depart="1009.35" departLane="best">
        <route edges="-138397654#3 138397654#3 138397654#4 138397654#5 138397654#6 138397654#7 138397654#8 138397654#9 38886705 15070834 138124569#4 138124569#5 138124569#7 138124569#8 138124569#9 138124569#10 203831227#0 203831227#1 29313477 38375347 38375349#0 233809947 20647689 20647714#2 20647305"/>
    </vehicle>
    <vehicle id="veh64" type="passenger" depart="1025.37" departLane="best">
        <route edges="5312307#0 5312307#1 151387781#0 151387781#1 138124569#9 138124569#10 203831227#0 203831227#1 29313477 38375347 38375345#0 38375345#1 38375345#2 38375345#3 38375345#4 38375345#5 38375345#6 38375345#7 55637437#0 55637437#1 55637437#3 -138397654#17 -138397654#16 -138397654#14 -138397654#13 -138397654#12 -138397654#11"/>
    </vehicle>
    <vehicle id="veh65" type="passenger" depart="1041.40" departLane="best">
        <route edges="119143323 206582209#1 -129518914 224709345#0 224709345#1 748201 748206#0 5364457#0 5364457#1 17453746#0 17453746#1 5312294 -138397654#11 38886705 15070834 138124569#4 138124569#5 138124569#7 138124569#8 138124569#9 138124569#10 192516747#0 192516747#1 29427154 -22634602#4 -22634602#3 -22634602#2 -22634602#1 22634602#1"/>
    </vehicle>
    <vehicle id="veh66" type="passenger" depart="1057.42" departLane="best">
        <route edges="-80511362 -5312339 174685587 174685595#0 174685595#1 174674980#0 174674980#1 727153 55637437#0 55637437#1 55637437#3 -39861649#2 -39861649#1 -224709345#2 -224709345#1 -224709345#0 -31404826#1 -14890634#1 -14890634#0"/>
    </vehicle>
    <vehicle id="veh67" type="passenger" depart="1073.44" departLane="best">
        <route edges="727166 31312156#0 336958620 -129518914 224709345#0 224709345#1 224709345#2 39861649#1 39861649#2 -55637437#3 -55637437#2 -55637437#0 -317727542 551736897 -337008054#1 -15134931#1 15134931#1"/>
    </vehicle>
    <vehicle id="veh68" type="passenger" depart="1089.46" departLane="best">
        <route edges="14890634#0 14890634#1 31404826#1 129518914 -336958620 31312156#1 31312126 -556684640#1 -556684640#0 -40950946#0 -73552050#4 -73552050#3 -73552050#2 -73552050#0 -138124564#3 -138124564#1 -138124564#0 138124572#0 138124572#1 138124572#2 138124569#0 138124569#1 138124569#2 39020727#0 39020727#1 39020727#2"/>
    </vehicle>
    <vehicle id="veh69" type="passenger" depart="1105.48" departLane="best">
        <route edges="138397654#17 -138397654#17 -138397654#16 -138397654#14 -138397654#13 -138397654#12 -138397654#11 38886705 15070834 138124569#4 138124569#5 138124569#7 138124569#8 138124569#9"/>
    </vehicle>
    <vehicle id="veh71" type="passenger" depart="1137.53" departLane="best">
        <route edges="80511362 551983509 29313477 38375347 38375345#0 38375345#1 38375345#2 38375345#3 38375345#4 38375345#5 38375345#6 38375345#7 55637437#0 55637437#1 55637437#3 -138397654#17 -138397654#16 -138397654#14 -138397654#13 -138397654#12 -138397654#11 -138397654#9 -138397654#8 -138397654#7"/>
    </vehicle>
    <vehicle id="veh72" type="passenger" depart="1153.55" departLane="best">
        <route edges="138397652 159762888#1 174685595#0 174685595#1 174674980#0 174674980#1 727153 55637437#0 55637437#1 55637437#3 -138397654#17 -138397654#16 -138397654#14 -138397654#13 -138397654#12 -138397654#11 38886705 135349964#8 135349964#9 135349964#10 135349964#11 135349964#12 135349964#13 135349964#14 107557649#0"/>
    </vehicle>
    <vehicle id="veh73" type="passenger" depart="1169.57" departLane="best">
        <route edges="5312307#0 5312307#1 151387781#0 5312304 -20644837 -20644763#0 5312299#1 135349964#5 135349964#6 135349964#8 135349964#9 135349964#10 135349964#11 135349964#12 135349964#13 135349964#14 -138124564#3 138124564#3 73552050#0 73552050#2 73552050#3 73552050#4 -61188951 -22635068"/>
    </vehicle>
    <vehicle id="veh74" type="passenger" depart="1185.59" departLane="best">
        <route edges="-727170 138125326#0 138125326#1 61188951 -73552050#4 -73552050#3 -73552050#2 -73552050#0 -138124564#3 -138124564#1 -138124564#0 138124572#0 138124572#1 138124572#2 138124569#0 138124569#1 138124569#2 138124569#3 138124569#4 138124569#5 138124569#7 138124569#8 138124569#9 138124569#10"/>
    </vehicle>
    <vehicle id="veh75" type="passenger" depart="1201.61" departLane="best">
        <route edges="138397654#16 138397654#17 -55637437#3 -55637437#2 -55637437#0 -317727542 551736897 -337008054#1 -337008054#0"/>
    </vehicle>
    <vehicle id="veh77" type="passenger" depart="1233.65" departLane="best">
        <route edges="138397654#8 138397654#9 138397654#11 138397654#12 138397654#13 138397654#14 138397654#16 138397654#17 -55637437#3 -55637437#2 -55637437#0 -317727542 159762888#0 159762888#1 55637430"/>
    </vehicle>
    <vehicle id="veh78" type="passenger" depart="1249.68" departLane="best">
        <route edges="17453746#1 5312294 -138397654#11 38886705 135349964#8 135349964#9 135349964#10 135349964#11 135349964#12 135349964#13 135349964#14 -138124564#3 -138124564#1"/>
    </vehicle>
    <vehicle id="veh81" type="passenger" depart="1297.74" departLane="best">
        <route edges="14890634#0 14890634#1 31404826#1 224709345#0 224709345#1 -224709345#1"/>
    </vehicle>
    <vehicle id="veh82" type="passenger" depart="1313.76" departLane="best">
        <route edges="138397652 159762888#1 174685595#0 174685595#1 174674980#0 174674980#1 727153 55637437#0 55637437#1 55637437#3 -138397654#17 -138397654#16 -138397654#14 -138397654#13 -138397654#12 -138397654#11 38886705 135349964#8 135349964#9 135349964#10 135349964#11 135349964#12 135349964#13 135349964#14 -138124564#3 -138124564#1 -138124564#0 138124572#0 138124572#1 -138124572#1"/>
    </vehicle>
    <vehicle id="veh83" type="passenger" depart="1329.78" departLane="best">
        <route edges="138125080#0 138125080#1 14891038 29427155 29313477 38375347 38375349#0 5312339 80511362"/>
    </vehicle>
    <vehicle id="veh84" type="passenger" depart="1345.80" departLane="best">
        <route edges="127658897 127658904 -224709345#2 748201 748206#0 5364457#0 5364457#1 17453746#0 17453746#1 5312294 -138397654#11 38886705 135349964#8 135349964#9 84603735 138124569#1 138124569#2 39020727#0 39020727#1 39020727#2"/>
    </vehicle>
    <vehicle id="veh86" type="passenger" depart="1377.85" departLane="best">
        <route edges="727176 434298721 727180 127658900 727153 55637437#0 55637437#1 55637437#3 -138397654#17 -138397654#16 -138397654#14 -138397654#13 -138397654#12 -138397654#11 -138397654#9 -138397654#8 -138397654#7 -138397654#6 -138397654#5 -138397654#4 -138397654#3 -138397654#2 -138397654#1 -138397654#0 -556684640#1 -556684640#0 39630231 38863924 556684638#1 93100419#1 93100419#4"/>
    </vehicle>
    <vehicle id="veh87" type="passenger" depart="1393.87" departLane="best">
        <route edges="17453746#3 -138397654#14 -138397654#13 -138397654#12 -138397654#11 38886705 135349964#8 135349964#9 135349964#10 135349964#11 135349964#12 135349964#13 135349964#14 107557649#0 107557649#1 107557649#3 29425839#1 29425839#2 29425839#3 29425839#4"/>
    </vehicle>
    <vehicle id="veh88" type="passenger" depart="1409.89" departLane="best">
        <route edges="73552050#2 -73552050#2 -73552050#0 -138124564#3 -138124564#1 -138124564#0 138124572#0 138124572#1 138124572#2 138124569#0 138124569#1 138124569#2 138124569#3 138124569#4 138124569#5 138124569#7 138124569#8 138124569#9 138124569#10 203831227#0 203831227#1 29313477 38375347 38375349#0 174685587 174685595#0 174685595#1 174674980#0 174674980#1 159762888#0"/>
    </vehicle>
    <vehicle id="veh89" type="passenger" depart="1425.91" departLane="best">
        <route edges="-138397654#13 138397654#13 138397654#14 138397654#16 138397654#17 -55637437#3 -55637437#2 -55637437#0 -317727542 159762888#0 159762888#1 55637430 20647689 20647714#2 14891038 165598282"/>
    </vehicle>
    <vehicle id="veh90" type="passenger" depart="1441.93" departLane="best">
        <route edges="14894535 138124569#0 138124569#1 138124569#2 138124569#3 138124569#4 138124569#5 138124569#7 138124569#8 138124569#9 138124569#10 203831227#0 203831227#1 29313477 38375347 38375345#0 38375345#1 38375345#2 38375345#3 38375345#4 38375345#5 38375345#6 38375345#7 55637437#0 55637437#1 55637437#3 -39861649#2 -39861649#1 -224709345#2 748201 748206#0 5364457#0 5364457#1"/>
    </vehicle>
    <vehicle id="veh91" type="passenger" depart="1457.95" departLane="best">
        <route edges="-138397654#6 -138397654#5 -138397654#4 -138397654#3 -138397654#2 -138397654#1 -138397654#0 -556684640#1 -556684640#0 39630231 38863924 31312156#0 336958620 -206582209#1 -206582209#0"/>
    </vehicle>
    <vehicle id="veh92" type="passenger" depart="1473.98" departLane="best">
        <route edges="119143323 206582209#1 -336958620 31312156#1 31312126 -556684640#1 -556684640#0 -40950946#0 -61188951 556684644#0 -14795618"/>
    </vehicle>
    <vehicle id="veh93" type="passenger" depart="1490.00" departLane="best">
        <route edges="5364457#2 -224709345#2 748201 748206#0 5364457#0 5364457#1 17453746#0 17453746#1 5312294 -138397654#11 38886705 15070834 138124569#4 138124569#5 138124569#7 138124569#8 138124569#9 138124569#10 192516747#0 192516747#1 29427154 -22634602#4"/>
    </vehicle>
    <vehicle id="veh94" type="passenger" depart="1506.02" departLane="best">
        <route edges="138397654#14 138397654#16 138397654#17 -55637437#3 -55637437#2 -55637437#0 -317727542 159762888#0 159762888#1 55637430 20647689 20647714#2 14891038 165598282"/>
    </vehicle>
    <vehicle id="veh96" type="passenger" depart="1538.06" departLane="best">
        <route edges="-80511362 80511362 551983509 29313477 38375347 135349964#0 135349964#1 135349964#2 135349964#3 135349964#4 135349964#5 135349964#6 135349964#8 135349964#9 135349964#10 135349964#11 135349964#12 135349964#13 135349964#14 107557649#0 107557649#1 107557649#3 29425839#1 29425839#2 29425839#3 29425839#4"/>
    </vehicle>
    <vehicle id="veh97" type="passenger" depart="1554.08" departLane="best">
        <route edges="119143323 206582209#1 -129518914 224709345#0 224709345#1 748201 748206#0 5364457#0 5364457#1 17453746#0 17453746#1 5312294 -138397654#11 38886705 135349964#8 135349964#9 135349964#10 135349964#11 135349964#12 135349964#13 135349964#14"/>
    </vehicle>
    <vehicle id="veh98" type="passenger" depart="1570.11" departLane="best">
        <route edges="22635068 61188951 40950946#0 39630231 38863924 31312156#0 336958620 -129518914 224709345#0 224709345#1 224709345#2 39861649#1 -39861649#1"/>
    </vehicle>
    <vehicle id="veh99" type="passenger" depart="1586.13" departLane="best">
        <route edges="-138397654#3 138397654#3 138397654#4 138397654#5 138397654#6 138397654#7 138397654#8 138397654#9 38886705 15070834 138124569#4"/>
    </vehicle>
    <vehicle id="veh101" type="passenger" depart="1618.17" departLane="best">
        <route edges="138125080#0 138125080#1 14891038 29427155 29313477 38375347 135349964#0 135349964#1 135349964#2 15070662#0 -20644763#1 20644837 -5312304 -151387781#0"/>
    </vehicle>
    <vehicle id="veh102" type="passenger" depart="1634.19" departLane="best">
        <route edges="5312294 -138397654#11 38886705 135349964#8 135349964#9 135349964#10 135349964#11 135349964#12 135349964#13 135349964#14 107557649#0 107557649#1 107557649#3 29425839#1 29425839#2 29425839#3 29425839#4"/>
    </vehicle>
    <vehicle id="veh103" type="passenger" depart="1650.21" departLane="best">