<?xml version="1.0" encoding="UTF-8"?>
<!-- generated on 2018-03-03 16:10:20.428091 by $Id: route2trips.py 26301 2017-10-02 20:48:38Z behrisch $ via randomTrips.py
  options: 
-->
<routes xmlns:xsi="http://www.w3.org/2001/XMLSchema-instance" xsi:noNamespaceSchemaLocation="http://sumo.dlr.de/xsd/routes_file.xsd">
    <vType id="passenger" speedFactor="normc(1.00,0.10,0.20,2.00)" vClass="passenger">
    </vType>
    <trip id="veh1" depart="16.02" departLane="best" from="127658897" to="-22634602#0" type="passenger"/>
    <trip id="veh2" depart="32.04" departLane="best" from="-138397651#3" to="-206582209#0" type="passenger"/>
    <trip id="veh4" depart="64.09" departLane="best" from="-80511362" to="17453746#1" type="passenger"/>
    <trip id="veh5" depart="80.11" departLane="best" from="38886705" to="-119143323" type="passenger"/>
    <trip id="veh6" depart="96.13" departLane="best" from="38375349#0" to="29425839#2" type="passenger"/>
    <trip id="veh7" depart="112.15" departLane="best" from="727176" to="-73552050#4" type="passenger"/>
    <trip id="veh8" depart="128.17" departLane="best" from="-15134931#0" to="-138397654#6" type="passenger"/>
    <trip id="veh9" depart="144.19" departLane="best" from="5312304" to="174685587" type="passenger"/>
    <trip id="veh10" depart="160.21" departLane="best" from="151387781#1" to="73552050#3" type="passenger"/>
    <trip id="veh11" depart="176.24" departLane="best" from="138125080#0" to="14890634#1" type="passenger"/>
    <trip id="veh12" depart="192.26" departLane="best" from="40950946#1" to="203831227#0" type="passenger"/>
    <trip id="veh13" depart="208.28" departLane="best" from="5312307#0" to="159762888#0" type="passenger"/>
    <trip id="veh14" depart="224.30" departLane="best" from="236512046#0" to="-129518914" type="passenger"/>
    <trip id="veh16" depart="256.34" departLane="best" from="-138397654#6" to="-22634602#0" type="passenger"/>
    <trip id="veh17" depart="272.37" departLane="best" from="-20644763#0" to="-337008054#0" type="passenger"/>
    <trip id="veh19" depart="304.41" departLane="best" from="138125080#0" to="-224709345#0" type="passenger"/>
    <trip id="veh22" depart="352.47" departLane="best" from="-556684640#0" to="135349964#0" type="passenger"/>
    <trip id="veh23" depart="368.49" departLane="best" from="84603737" to="20647305" type="passenger"/>
    <trip id="veh26" depart="416.56" departLane="best" from="135349964#5" to="-22635068" type="passenger"/>
    <trip id="veh29" depart="464.62" departLane="best" from="556684639#1" to="138124569#5" type="passenger"/>
    <trip id="veh30" depart="480.64" departLane="best" from="127658897" to="-22634602#4" type="passenger"/>
    <trip id="veh31" depart="496.67" departLane="best" from="174674980#0" to="-22635068" type="passenger"/>
    <trip id="veh32" depart="512.69" departLane="best" from="20644763#0" to="727166" type="passenger"/>
    <trip id="veh33" depart="528.71" departLane="best" from="138397651#2" to="-22634602#0" type="passenger"/>
    <trip id="veh34" depart="544.73" departLane="best" from="93100419#5" to="138397652" type="passenger"/>
    <trip id="veh35" depart="560.75" departLane="best" from="-14890634#1" to="-138124564#0" type="passenger"/>
    <trip id="veh36" depart="576.77" departLane="best" from="-206582209#1" to="20644837" type="passenger"/>
    <trip id="veh37" depart="592.79" departLane="best" from="38375345#4" to="138124219" type="passenger"/>
    <trip id="veh38" depart="608.82" departLane="best" from="93100419#4" to="138397654#17" type="passenger"/>
    <trip id="veh39" depart="624.84" departLane="best" from="73552050#3" to="551983509" type="passenger"/>
    <trip id="veh40" depart="640.86" departLane="best" from="22635068" to="138397654#4" type="passenger"/>
    <trip id="veh41" depart="656.88" departLane="best" from="127658897" to="20647305" type="passenger"/>
    <trip id="veh42" depart="672.90" departLane="best" from="-224709345#0" to="138124219" type="passenger"/>
    <trip id="veh44" depart="704.95" departLane="best" from="5312307#1" to="-22635068" type="passenger"/>
    <trip id="veh45" depart="720.97" departLane="best" from="556684638#1" to="55637437#1" type="passenger"/>
    <trip id="veh46" depart="736.99" departLane="best" from="135349964#12" to="20647305" type="passenger"/>
    <trip id="veh47" depart="753.01" departLane="best" from="206582209#0" to="-15134931#1" type="passenger"/>
    <trip id="veh48" depart="769.03" departLane="best" from="337008054#0" to="138397654#5" type="passenger"/>
    <trip id="veh49" depart="785.05" departLane="best" from="337008054#1" to="138397654#17" type="passenger"/>
    <trip id="veh51" depart="817.10" departLane="best" from="5312339" to="5312301#1" type="passenger"/>
    <trip id="veh52" depart="833.12" departLane="best" from="135349964#2" to="-138124572#1" type="passenger"/>
    <trip id="veh54" depart="865.16" departLane="best" from="-138397654#8" to="138397651#2" type="passenger"/>
    <trip id="veh55" depart="881.18" departLane="best" from="-138397654#2" to="38375345#5" type="passenger"/>
    <trip id="veh56" depart="897.20" departLane="best" from="337008054#0" to="-14890634#0" type="passenger"/>
    <trip id="veh57" depart="913.22" departLane="best" from="14890634#0" to="138397654#9" type="passenger"/>
    <trip id="veh58" depart="929.25" departLane="best" from="159762888#0" to="31312138#1" type="passenger"/>
    <trip id="veh59" depart="945.27" departLane="best" from="-73552050#4" to="-5312339" type="passenger"/>
    <trip id="veh60" depart="961.29" departLane="best" from="93100419#4" to="20647392" type="passenger"/>
    <trip id="veh61" depart="977.31" departLane="best" from="138124569#1" to="17453746#1" type="passenger"/>
    <trip id="veh63" depart="1009.35" departLane="best" from="-138397654#3" to="20647305" type="passenger"/>
    <trip id="veh64" depart="1025.37" departLane="best" from="5312307#0" to="-138397654#11" type="passenger"/>
    <trip id="veh65" depart="1041.40" departLane="best" from="119143323" to="22634602#1" type="passenger"/>
    <trip id="veh66" depart="1057.42" departLane="best" from="-80511362" to="-14890634#0" type="passenger"/>
    <trip id="veh67" depart="1073.44" departLane="best" from="727166" to="15134931#1" type="passenger"/>
    <trip id="veh68" depart="1089.46" departLane="best" from="14890634#0" to="39020727#2" type="passenger"/>
    <trip id="veh69" depart="1105.48" departLane="best" from="138397654#17" to="138124569#9" type="passenger"/>
    <trip id="veh71" depart="1137.53" departLane="best" from="80511362" to="-138397654#7" type="passenger"/>
    <trip id="veh72" depart="1153.55" departLane="best" from="138397652" to="107557649#0" type="passenger"/>
    <trip id="veh73" depart="1169.57" departLane="best" from="5312307#0" to="-22635068" type="passenger"/>
    <trip id="veh74" depart="1185.59" departLane="best" from="-727170" to="138124569#10" type="passenger"/>
    <trip id="veh75" depart="1201.61" departLane="best" from="138397654#16" to="-337008054#0" type="passenger"/>
    <trip id="veh77" depart="1233.65" departLane="best" from="138397654#8" to="55637430" type="passenger"/>
    <trip id="veh78" depart="1249.68" departLane="best" from="17453746#1" to="-138124564#1" type="passenger"/>
    <trip id="veh81" depart="1297.74" departLane="best" from="14890634#0" to="-224709345#1" type="passenger"/>
    <trip id="veh82" depart="1313.76" departLane="best" from="138397652" to="-138124572#1" type="passenger"/>
    <trip id="veh83" depart="1329.78" departLane="best" from="138125080#0" to="80511362" type="passenger"/>
    <trip id="veh84" depart="1345.80" departLane="best" from="127658897" to="39020727#2" type="passenger"/>
    <trip id="veh86" depart="1377.85" departLane="best" from="727176" to="93100419#4" type="passenger"/>
    <trip id="veh87" depart="1393.87" departLane="best" from="17453746#3" to="29425839#4" type="passenger"/>
    <trip id="veh88" depart="1409.89" departLane="best" from="73552050#2" to="159762888#0" type="passenger"/>
    <trip id="veh89" depart="1425.91" departLane="best" from="-138397654#13" to="165598282" type="passenger"/>
    <trip id="veh90" depart="1441.93" departLane="best" from="14894535" to="5364457#1" type="passenger"/>
    <trip id="veh91" depart="1457.95" departLane="best" from="-138397654#6" to="-206582209#0" type="passenger"/>
    <trip id="veh92" depart="1473.98" departLane="best" from="119143323" to="-14795618" type="passenger"/>
    <trip id="veh93" depart="1490.00" departLane="best" from="5364457#2" to="-22634602#4" type="passenger"/>
    <trip id="veh94" depart="1506.02" departLane="best" from="138397654#14" to="165598282" type="passenger"/>
    <trip id="veh96" depart="1538.06" departLane="best" from="-80511362" to="29425839#4" type="passenger"/>
    <trip id="veh97" depart="1554.08" departLane="best" from="119143323" to="135349964#14" type="passenger"/>
    <trip id="veh98" depart="1570.11" departLane="best" from="22635068" to="-39861649#1" type="passenger"/>
    <trip id="veh99" depart="1586.13" departLane="best" from="-138397654#3" to="138124569#4" type="passenger"/>
    <trip id="veh101" depart="1618.17" departLane="best" from="138125080#0" to="-151387781#0" type="passenger"/>
    <trip id="veh102" depart="1634.19" departLane="best" from="5312294" to="29425839#4" type="passenger"/>
    <trip id="veh103" depart="1650.21" departLane="best" from="206582209#0" to="84603735" type="passenger"/>
    <trip id="veh107" depart="1714.30" departLane="best" from="-317727542" to="-14795618" type="passenger"/>
    <trip id="veh108" depart="1730.32" departLane="best" from="-20644837" to="14890634#1" type="passenger"/>
    <trip id="veh109" depart="1746.34" departLane="best" from="127658897" to="174685587" type="passenger"/>
    <trip id="veh110" depart="1762.36" departLane="best" from="29313475" to="-206582209#0" type="passenger"/>
    <trip id="veh112" depart="1794.41" departLane="best" from="14890634#0" to="727170" type="passenger"/>
    <trip id="veh113" depart="1810.43" departLane="best" from="5312301#1" to="-138397654#4" type="passenger"/>
    <trip id="veh114" depart="1826.45" departLane="best" from="138397654#17" to="-337008054#0" type="passenger"/>
    <trip id="veh115" depart="1842.47" departLane="best" from="-129518914" to="38375349#0" type="passenger"/>
    <trip id="veh117" depart="1874.51" departLane="best" from="55637437#0" to="138397654#7" type="passenger"/>
    <trip id="veh118" depart="1890.53" departLane="best" from="5312294" to="165598282" type="passenger"/>
    <trip id="veh119" depart="1906.56" departLane="best" from="-5312304" to="-14890634#0" type="passenger"/>
    <trip id="veh120" depart="1922.58" departLane="best" from="135349964#2" to="727166" type="passenger"/>
    <trip id="veh121" depart="1938.60" departLane="best" from="55637430" to="-224709345#0" type="passenger"/>
    <trip id="veh122" depart="1954.62" departLane="best" from="38375345#0" to="556684644#2" type="passenger"/>
    <trip id="veh123" depart="1970.64" departLane="best" from="138397654#1" to="203831227#1" type="passenger"/>
    <trip id="veh124" depart="1986.66" departLane="best" from="5312307#0" to="73552050#4" type="passenger"/>
    <trip id="veh125" depart="2002.69" departLane="best" from="-138397651#3" to="31312156#0" type="passenger"/>
    <trip id="veh127" depart="2034.73" departLane="best" from="38886705" to="-22635068" type="passenger"/>
    <trip id="veh128" depart="2050.75" departLane="best" from="38375345#2" to="-14795618" type="passenger"/>
    <trip id="veh129" depart="2066.77" departLane="best" from="5312307#0" to="551983509" type="passenger"/>
    <trip id="veh130" depart="2082.79" departLane="best" from="-80511362" to="40950946#1" type="passenger"/>
    <trip id="veh132" depart="2114.84" departLane="best" from="38375345#5" to="-22634602#0" type="passenger"/>
    <trip id="veh133" depart="2130.86" departLane="best" from="-138397651#2" to="-206582209#0" type="passenger"/>
    <trip id="veh134" depart="2146.88" departLane="best" from="138124564#1" to="55637435" type="passenger"/>
    <trip id="veh135" depart="2162.90" departLane="best" from="73552050#0" to="-337008054#0" type="passenger"/>
    <trip id="veh137" depart="2194.94" departLane="best" from="727176" to="-14795618" type="passenger"/>
    <trip id="veh138" depart="2210.96" departLane="best" from="73552050#2" to="-20644763#0" type="passenger"/>
    <trip id="veh139" depart="2226.99" departLane="best" from="727180" to="-22635068" type="passenger"/>
    <trip id="veh140" depart="2243.01" departLane="best" from="-206582209#1" to="138124219" type="passenger"/>
    <trip id="veh142" depart="2275.05" departLane="best" from="138125080#0" to="151387781#1" type="passenger"/>
    <trip id="veh144" depart="2307.09" departLane="best" from="159762888#0" to="29425839#4" type="passenger"/>
    <trip id="veh145" depart="2323.11" departLane="best" from="31312138#2" to="22634602#2" type="passenger"/>
    <trip id="veh146" depart="2339.14" departLane="best" from="138124572#1" to="-138397654#11" type="passenger"/>
    <trip id="veh147" depart="2355.16" departLane="best" from="29313477" to="-39861649#1" type="passenger"/>
    <trip id="veh148" depart="2371.18" departLane="best" from="727176" to="22634602#4" type="passenger"/>
    <trip id="veh149" depart="2387.20" departLane="best" from="-127658904" to="-337008054#0" type="passenger"/>
    <trip id="veh150" depart="2403.22" departLane="best" from="138397654#3" to="159762888#1" type="passenger"/>
    <trip id="veh151" depart="2419.24" departLane="best" from="14890634#0" to="727170" type="passenger"/>
    <trip id="veh152" depart="2435.27" departLane="best" from="38375345#6" to="-151387781#0" type="passenger"/>
    <trip id="veh154" depart="2467.31" departLane="best" from="39630231" to="38375345#1" type="passenger"/>
    <trip id="veh155" depart="2483.33" departLane="best" from="22635068" to="-22634602#0" type="passenger"/>
    <trip id="veh156" depart="2499.35" departLane="best" from="-73552050#4" to="-127658897" type="passenger"/>
    <trip id="veh157" depart="2515.37" departLane="best" from="119143323" to="138124572#2" type="passenger"/>
    <trip id="veh158" depart="2531.39" departLane="best" from="5312305" to="-138397654#12" type="passenger"/>
    <trip id="veh159" depart="2547.42" departLane="best" from="138397654#13" to="20647305" type="passenger"/>
    <trip id="veh161" depart="2579.46" departLane="best" from="31404826#1" to="38375347" type="passenger"/>
    <trip id="veh162" depart="2595.48" departLane="best" from="-20644837" to="138124219" type="passenger"/>
    <trip id="veh164" depart="2627.52" departLane="best" from="15070140" to="-138124564#1" type="passenger"/>
    <trip id="veh166" depart="2659.57" departLane="best" from="22635068" to="84603735" type="passenger"/>
    <trip id="veh168" depart="2691.61" departLane="best" from="5364457#2" to="192516747#0" type="passenger"/>
    <trip id="veh169" depart="2707.63" departLane="best" from="551983509" to="336958620" type="passenger"/>
    <trip id="veh170" depart="2723.65" departLane="best" from="14890634#0" to="-22635068" type="passenger"/>
    <trip id="veh171" depart="2739.67" departLane="best" from="119143323" to="20647305" type="passenger"/>
    <trip id="veh172" depart="2755.69" departLane="best" from="337008054#0" to="138397654#13" type="passenger"/>
    <trip id="veh173" depart="2771.72" departLane="best" from="-138397654#5" to="-337008054#0" type="passenger"/>
    <trip id="veh174" depart="2787.74" departLane="best" from="127658897" to="-556684640#0" type="passenger"/>
    <trip id="veh175" depart="2803.76" departLane="best" from="159762888#0" to="-14890634#0" type="passenger"/>
    <trip id="veh176" depart="2819.78" departLane="best" from="119143323" to="29425839#1" type="passenger"/>
    <trip id="veh177" depart="2835.80" departLane="best" from="138397654#13" to="-206582209#1" type="passenger"/>
    <trip id="veh178" depart="2851.82" departLane="best" from="138397654#16" to="727170" type="passenger"/>
    <trip id="veh179" depart="2867.85" departLane="best" from="20644763#0" to="29425839#1" type="passenger"/>
    <trip id="veh180" depart="2883.87" departLane="best" from="5312307#0" to="38375345#7" type="passenger"/>
    <trip id="veh181" depart="2899.89" departLane="best" from="138125080#0" to="-119143323" type="passenger"/>
    <trip id="veh183" depart="2931.93" departLane="best" from="17453746#0" to="174685587" type="passenger"/>
    <trip id="veh184" depart="2947.95" departLane="best" from="-80511362" to="-22634602#0" type="passenger"/>
    <trip id="veh185" depart="2963.97" departLane="best" from="138397654#6" to="-127658897" type="passenger"/>
    <trip id="veh186" depart="2980.00" departLane="best" from="138124569#1" to="233809947" type="passenger"/>
    <trip id="veh187" depart="2996.02" departLane="best" from="138397654#0" to="-151387781#0" type="passenger"/>
    <trip id="veh189" depart="3028.06" departLane="best" from="138125326#0" to="15070662#1" type="passenger"/>
    <trip id="veh190" depart="3044.08" departLane="best" from="-336958620" to="138124569#7" type="passenger"/>
    <trip id="veh191" depart="3060.10" departLane="best" from="-138397654#1" to="135349964#0" type="passenger"/>
    <trip id="veh192" depart="3076.12" departLane="best" from="-80511362" to="-61188951" type="passenger"/>
    <trip id="veh193" depart="3092.15" departLane="best" from="31404826#1" to="5312301#1" type="passenger"/>
    <trip id="veh194" depart="3108.17" departLane="best" from="119143323" to="-138397654#16" type="passenger"/>
    <trip id="veh196" depart="3140.21" departLane="best" from="727176" to="-206582209#0" type="passenger"/>
    <trip id="veh197" depart="3156.23" departLane="best" from="-138124572#2" to="-15134931#1" type="passenger"/>
    <trip id="veh198" depart="3172.25" departLane="best" from="174674980#1" to="-22634602#0" type="passenger"/>
    <trip id="veh199" depart="3188.27" departLane="best" from="-61188951" to="174685595#0" type="passenger"/>
    <trip id="veh200" depart="3204.30" departLane="best" from="31312156#1" to="-14795618" type="passenger"/>
    <trip id="veh202" depart="3236.34" departLane="best" from="727176" to="135349964#14" type="passenger"/>
    <trip id="veh203" depart="3252.36" departLane="best" from="236512046#2" to="-138397654#13" type="passenger"/>
    <trip id="veh204" depart="3268.38" departLane="best" from="236512046#0" to="20644837" type="passenger"/>
    <trip id="veh205" depart="3284.40" departLane="best" from="5312305" to="174674980#0" type="passenger"/>
    <trip id="veh207" depart="3316.45" departLane="best" from="38375345#1" to="1218075" type="passenger"/>
    <trip id="veh208" depart="3332.47" departLane="best" from="138397654#3" to="135339516" type="passenger"/>
    <trip id="veh210" depart="3364.51" departLane="best" from="236512046#0" to="138124219" type="passenger"/>
    <trip id="veh211" depart="3380.53" departLane="best" from="159762888#0" to="138125326#1" type="passenger"/>
    <trip id="veh212" depart="3396.55" departLane="best" from="138397654#6" to="31312138#1" type="passenger"/>
    <trip id="veh213" depart="3412.58" departLane="best" from="434298721" to="-138397654#2" type="passenger"/>
    <trip id="veh214" depart="3428.60" departLane="best" from="5312438" to="-22634602#3" type="passenger"/>
    <trip id="veh216" depart="3460.64" departLane="best" from="138125080#0" to="-127658897" type="passenger"/>
    <trip id="veh217" depart="3476.66" departLane="best" from="-80511362" to="39020727#2" type="passenger"/>
    <trip id="veh218" depart="3492.68" departLane="best" from="138124569#10" to="556684640#1" type="passenger"/>
    <trip id="veh220" depart="3524.73" departLane="best" from="-138397654#8" to="29425839#4" type="passenger"/>
    <trip id="veh221" depart="3540.75" departLane="best" from="14890634#0" to="38375345#4" type="passenger"/>
    <trip id="veh222" depart="3556.77" departLane="best" from="14890634#1" to="39020727#2" type="passenger"/>
    <trip id="veh223" depart="3572.79" departLane="best" from="-15134931#0" to="-22634602#0" type="passenger"/>
    <trip id="veh224" depart="3588.81" departLane="best" from="236512046#0" to="-40950946#0" type="passenger"/>
</routes>
