<?xml version="1.0" encoding="UTF-8"?>
<!-- generated on 2018-03-03 19:53:58.919570 by $Id: randomTrips.py 26301 2017-10-02 20:48:38Z behrisch $
  options: -n osm.net.xml -o randomtrips.rou.xml -e .2
-->
<routes xmlns:xsi="http://www.w3.org/2001/XMLSchema-instance" xsi:noNamespaceSchemaLocation="http://sumo.dlr.de/xsd/routes_file.xsd">
    <trip id="0" depart="0.00" from="-15134931#0" to="129518914"/>
</routes>
