<?xml version="1.0" encoding="UTF-8"?>
<!-- generated on 2017-11-09 21:34:06.470668 by $Id: route2trips.py 26301 2017-10-02 20:48:38Z behrisch $ via randomTrips.py
  options:
-->
<routes xmlns:xsi="http://www.w3.org/2001/XMLSchema-instance" xsi:noNamespaceSchemaLocation="http://sumo.dlr.de/xsd/routes_file.xsd">
    <vType id="passenger" speedFactor="normc(1.00,0.10,0.20,2.00)" vClass="passenger">
    </vType>

    <!-- North/South traffic flows -->
    <flow id="ns" color="1,1,0" vehsPerHour="50" type="passenger">
        <route edges="33708057#0 33708057#2 33708057#3 35202667#0 35202667#1 35202667#2"/>
    </flow>
    <flow id="nstr" color="1,1,0" vehsPerHour="50" type="passenger">
        <route edges="33708057#0 33708057#2 33708057#3 -374366365#4 -374366365#3 -374366365#2"/>
    </flow>
    <flow id="nstl" color="1,1,0" vehsPerHour="50" type="passenger">
        <route edges="33708057#0 33708057#2 33708057#3 414126489 138139938#2"/>
    </flow>

    <flow id="sn" color="1,1,0" vehsPerHour="50" type="passenger">
        <route edges="-35202667#2 -35202667#1 -35202667#0 -33708057#3 -33708057#2 -33708057#1"/>
    </flow>
     <flow id="sntl" color="1,1,0" vehsPerHour="50" type="passenger">
        <route edges="-35202667#2 -35202667#1 -35202667#0 -374366365#4 -374366365#3 -374366365#2"/>
    </flow>
     <flow id="sntr" color="1,1,0" vehsPerHour="50" type="passenger">
        <route edges="-35202667#2 -35202667#1 -35202667#0 414126489 138139938#2"/>
    </flow>


    <!-- East/West traffic flows -->
    <flow id="we" color="1,1,0" vehsPerHour="50" type="passenger">
        <route edges="374366365#0 374366365#3 374366365#4 414126489 138139938#2 "/>
    </flow>
    <flow id="wetr" color="1,1,0" vehsPerHour="50" type="passenger">
        <route edges="374366365#0 374366365#3 374366365#4 -33708057#3 -33708057#2 -33708057#1"/>
    </flow>
    <flow id="wetl" color="1,1,0" vehsPerHour="50" type="passenger">
        <route edges="374366365#0 374366365#3 374366365#4 35202667#0 35202667#1 35202667#2"/>
    </flow>

    <flow id="ew" color="1,1,0" vehsPerHour="50" type="passenger">
        <route edges="-138139938#2 -138139938#0.0 -138139938#0.74 -374366365#4 -374366365#3 -374366365#2"/>
    </flow>
    <flow id="ewtl" color="1,1,0" vehsPerHour="50" type="passenger">
        <route edges="-138139938#2 -138139938#0.0 -138139938#0.74 -33708057#3 -33708057#2 -33708057#1"/>
    </flow>
    <flow id="ewtr" color="1,1,0" vehsPerHour="50" type="passenger">
        <route edges="-138139938#2 -138139938#0.0 -138139938#0.74 35202667#0 35202667#1 35202667#2"/>
    </flow>


</routes>
